 22                                    
                                       
  C   -0.968666   -1.316958   -0.006973
  C    0.399366   -1.481808   -0.015122
  C    1.251386   -0.371808   -0.018682
  C    0.706833    0.910911   -0.014464
  C     -0.6727    1.064863   -0.006203
  C   -1.510181   -0.036362   -0.002377
  H   -1.620081   -2.181663   -0.004245
  H    0.820666   -2.480251   -0.018636
  N    2.628537   -0.627747   -0.027697
  H    1.354582    1.771016   -0.018743
  H   -1.093796    2.060785   -0.003115
  C   -3.001469    0.112768     0.00739
  C    5.035022   -0.383165    0.042753
  C    3.671854     0.26878   -0.010217
  O    3.526159    1.467745   -0.011895
  H    5.084866   -1.287173   -0.563639
  H     5.26253   -0.647824    1.076812
  H    5.772969     0.33447   -0.302757
  H    2.883321   -1.602055    -0.02535
  F   -3.551111   -0.462862    1.087953
  F   -3.387227    1.391424    0.003034
  F   -3.566413   -0.475048   -1.058534
