 26                                    
                                       
  C   -3.987876   -1.310594    0.337417
  C   -2.605295   -1.342389    0.339675
  C   -1.868223   -0.196109    0.037055
  C   -2.535682    0.988468   -0.270413
  C   -3.923972    1.003138   -0.268067
  C   -4.658375   -0.133426    0.032988
  H   -4.541691   -2.209366    0.575413
  H   -2.085912   -2.263653    0.578983
  N   -0.467979   -0.317747    0.045429
  H   -1.973919    1.878088   -0.500657
  H   -4.434456    1.927067   -0.507639
  H   -5.739563   -0.104553    0.031374
  O    0.214697    1.845141   -0.185843
  C    0.474783    0.666806   -0.074004
  C    1.896112    0.181612   -0.039695
  C    2.862927    1.082025    0.396711
  C    4.194406    0.704165    0.448337
  C    4.572341    -0.57095    0.046541
  C    3.615231   -1.465201   -0.410664
  C    2.279469   -1.091696    -0.45143
  H   -0.121299   -1.235943    0.268699
  H    2.547598    2.075134    0.687932
  H    4.940595    1.405532    0.797888
  H     5.61354   -0.864134      0.0811
  H     3.90852   -2.451712   -0.744679
  H    1.549806   -1.788451   -0.846375
