 22                                    
                                       
  C     2.28662    1.230048   -0.568324
  C    0.928684    0.948885   -0.604529
  C    0.447343   -0.244703    -0.07617
  C    1.336218   -1.161333    0.474475
  C    2.690589   -0.871023    0.529573
  C    3.167332     0.32471    0.008033
  H     2.65781    2.153367     -0.9936
  H     0.24033    1.649902   -1.061022
  C   -0.997668    -0.64148   -0.179405
  H    0.950556    -2.10264    0.843767
  H    3.377324   -1.582087    0.969909
  H    4.226016    0.547093    0.042356
  O   -1.292947   -1.777565   -0.500815
  N   -1.944741    0.316415    0.043334
  C   -1.748832    1.505261    0.849924
  C   -3.329974   -0.042517   -0.191445
  H   -0.730036    1.563068    1.218576
  H   -2.422495    1.474504    1.711019
  H   -1.971588    2.408735    0.276289
  H   -3.382007   -0.783088   -0.983555
  H   -3.881366    0.852616   -0.481681
  H   -3.789657   -0.462949    0.708336
