 34                                    
                                       
  C     -3.6367   -0.772653    0.701006
  C   -2.315597   -1.175058    0.575752
  C   -1.419741   -0.414707   -0.167581
  C   -1.867244    0.731696   -0.816018
  C   -3.194173    1.121918   -0.709874
  C   -4.078275    0.375902    0.057723
  H   -3.538515    2.006907   -1.229007
  H    -1.96636   -2.088178    1.039995
  C   -0.022658   -0.948601   -0.343151
  H   -1.178357    1.311008   -1.417662
  H   -5.111927    0.684155    0.146487
  H   -4.325875   -1.362399    1.291306
  N    1.048162   -0.106979   -0.188867
  C    0.936155    1.149882    0.567767
  C    1.234063    2.409405   -0.250758
  C    1.737721    1.141729    1.868729
  H    -0.10816    1.207938     0.86161
  H    0.814501    2.338357   -1.253765
  H    0.785961    3.271294    0.246495
  H    2.301337    2.602065   -0.342288
  H    1.496501    0.265841    2.470862
  H    2.812397      1.1565    1.691104
  H    1.486914    2.034801    2.443193
  C    2.348541   -0.715231   -0.536571
  C    2.908305   -1.597672    0.579209
  C    3.380202    0.287495   -1.033979
  H    2.112832   -1.378122   -1.367884
  H    2.138766   -2.278391    0.939825
  H    3.732129   -2.196459     0.18706
  H    3.290515   -1.010394     1.41349
  H    2.985262    0.901576     -1.8428
  H    3.748982    0.941438   -0.244068
  H    4.235519   -0.269259   -1.418654
  O    0.110857   -2.119307   -0.655845
