 23                                    
                                       
  C    2.299177   -1.382501   -0.448677
  C    0.996746   -0.915474   -0.530805
  C     0.69084    0.374316   -0.110588
  C     1.69966    1.194239    0.384764
  C     2.99763    0.719099    0.486998
  C    3.298977   -0.570016    0.069667
  H    2.535033   -2.381965   -0.789988
  H    0.224525   -1.547322   -0.944969
  C    -0.66778    0.985841   -0.237664
  H    1.449138    2.204495     0.68007
  H    3.775909    1.357209    0.884465
  H    4.313671   -0.939921    0.141379
  O   -0.809699    2.166638   -0.468366
  N   -1.777973    0.161455   -0.132789
  C   -3.067254    0.807034    0.040383
  H   -3.156998    1.591127   -0.704327
  H   -3.155844    1.243571    1.037919
  H   -3.853113    0.070578   -0.111863
  O   -1.612018   -0.933423    0.715441
  C    -2.15554   -2.104197    0.136869
  H   -3.246006   -2.056344    0.089213
  H   -1.760563   -2.266766   -0.867672
  H   -1.860942   -2.920611    0.793014
