 29                                    
                                       
  C    2.719796   -1.516013   -0.692827
  C    1.490758   -0.873648   -0.668472
  C     1.36321    0.370215     -0.0581
  C    2.477786     0.97313    0.513412
  C    3.701763    0.321679    0.507624
  C    3.824348   -0.923056   -0.095652
  H    4.564077    0.789826    0.964154
  H    0.627606   -1.328583   -1.140103
  C    0.078704    1.149472   -0.097181
  H    2.371852    1.958677    0.947869
  H    2.817071   -2.476758   -1.181439
  H    4.782165   -1.426879   -0.109158
  C   -1.201432   -0.725508    0.957921
  C   -2.347785    1.180775   -0.045019
  C   -2.191549   -1.705185    0.340985
  H   -1.566554   -0.428673    1.951017
  H   -0.224006   -1.177074    1.094739
  C   -3.378443    0.254689   -0.680718
  H   -2.709992    1.530995    0.930684
  O    0.102831    2.331562   -0.384152
  C   -3.543686   -1.028338    0.129444
  H   -2.291901    -2.57618    0.991124
  H   -1.797694    -2.05333   -0.618584
  H   -4.330424    0.781563   -0.766258
  H   -3.048716    0.009072   -1.694049
  H   -4.239901   -1.707617   -0.364729
  H   -3.975265   -0.784118    1.106125
  N   -1.086566    0.473103    0.136122
  H   -2.155821    2.055589   -0.659528
