 23                                    
                                       
  C    2.767253   -1.209084    0.234408
  C    1.380969   -1.247405    0.224591
  C    0.643583   -0.088932   -0.028026
  C    1.321077    1.108913   -0.273287
  C    2.706011    1.129419   -0.256956
  C    3.439861   -0.021736   -0.004652
  H    3.319599   -2.118184    0.434234
  H    0.878705   -2.183345     0.42394
  N   -0.762725   -0.159161    -0.05081
  H    0.762064    2.009179   -0.467464
  H    3.216573    2.064289   -0.449359
  H    4.521123    0.007249    0.003875
  O   -1.330038    2.059495    0.278905
  C   -1.628562    0.897797    0.147232
  C   -3.036922    0.332429    0.206497
  C   -2.904732   -1.060324   -0.396552
  C   -1.457767   -1.441619   -0.079136
  H   -3.727838    0.995703   -0.307696
  H   -3.326318    0.297072    1.259888
  H   -3.038516   -1.013365   -1.477444
  H   -3.613727   -1.781547    0.003569
  H    -1.01808   -2.092025   -0.835117
  H   -1.378828   -1.943603    0.891294
