 20                                    
                                       
  C    2.092553     1.21158    0.000174
  C    0.726287    1.411832   -0.000033
  C   -0.162537    0.336105   -0.000172
  C    0.347237   -0.958916   -0.000099
  C    1.721701   -1.156015    0.000112
  C    2.598545   -0.082247     0.00025
  H    2.779799      2.0466    0.000283
  H    0.339626    2.424865   -0.000084
  N   -1.540073    0.633384   -0.000394
  H   -0.324393   -1.801251   -0.000211
  H    2.110161   -2.168516    0.000166
  O    3.953413   -0.230959    0.000458
  O    -2.49631   -1.433988   -0.000157
  H   -1.765086    1.614921   -0.000476
  C    -2.60304   -0.227869   -0.000262
  H    4.175204   -1.166804    0.000489
  C   -3.947334    0.469263   -0.000013
  H   -4.053422    1.097831     0.88522
  H   -4.052031    1.101909   -0.882491
  H   -4.726634   -0.286074    -0.00229
