 27                                                
                                                   
  C   -1.1436603498   -0.6141711436   -0.0482922778
  C   -1.1714710982    0.7726721137   -0.0291238152
  C     0.013632023    1.5057732975   -0.0038860451
  C    1.2287471906    0.8213069917   -0.0035600688
  C    1.2559015146   -0.5631607394   -0.0139816027
  C    0.0696881121   -1.2862199854   -0.0354506758
  H   -2.0720397691   -1.1695430521    -0.079106143
  H    -2.125677744    1.2822970226   -0.0631688365
  C    0.0076086481    2.9913348347    0.0107927917
  H    2.1452269591    1.3951729403    0.0049682795
  H    2.2058553921   -1.0818510201   -0.0051854413
  H    0.0916926718   -2.3682305032   -0.0463062928
  C   -1.1053830893    3.7045538618    0.5400541585
  C   -1.0863443664    5.0650792431    0.5409498968
  H   -1.9416411105    3.1650600115    0.9608782411
  C    1.1018460497    4.9574118381    -0.471219826
  C    0.0354126563    5.7485267141    0.0196033429
  H   -1.9153059747    5.6342517708    0.9456547982
  N    1.0660494764    3.6012012805   -0.4639946933
  C    2.2488177607    5.6020249973    -0.994294959
  C    0.1374432981    7.1577563953    -0.020783811
  C    1.2558717822    7.7542670465   -0.5310144441
  H    1.3312216454     8.833254179   -0.5616870354
  C    2.3210684995     6.965940829   -1.0222175532
  H    3.2003988327    7.4525687306   -1.4240271825
  H   -0.6844581147    7.7530997502    0.3590528844
  H    3.0509222244    4.9784145056   -1.3662108296
