 22                                                
                                                   
  C   -1.2367064612   -0.6654269452    0.1097379909
  C   -1.1407665412    0.7147812077   -0.0073289746
  C    0.1089126255    1.3027561274   -0.0820458884
  C    1.2651121915    0.5387407266   -0.0412284173
  C    1.1578610222   -0.8378448817    0.0710044247
  C   -0.0902425353   -1.4444962866    0.1466517311
  H   -2.2123054338     -1.12974644    0.1704569336
  H   -2.0201217142     1.343944253   -0.0368896995
  O     0.160780043    2.6847815224   -0.1030783891
  H    2.2299587044    1.0225444678    -0.104979074
  H    2.0559419772   -1.4409308767    0.1016353089
  H   -0.1661104256   -2.5199391323    0.2359050381
  C    0.8186512407    3.3332170488   -1.0984609522
  C    0.9854786152    4.7103411162   -0.9252322346
  N    1.2304617683    2.6682251387   -2.1527323998
  C      1.62158635    5.4044405564   -1.9296929222
  H    0.6177434729    5.1852071742   -0.0272090286
  C    1.8478347184    3.3576747131   -3.1159934495
  C    2.0687572219    4.7190221634   -3.0579111162
  H    1.7724234637    6.4725265092   -1.8388601053
  H    2.1744755303    2.7789751533   -3.9726487521
  H    2.5728936261    5.2290533546   -3.8660208338
