 19                                                
                                                   
  C   -1.1787406165   -0.7185216829   -0.0008111858
  C   -1.2309238538    0.6667898408   -0.0008183356
  C    -0.049841606    1.4006966392   -0.0000370624
  C    1.1778711462    0.7473350703    0.0006725924
  C    1.2141207174   -0.6374834999     0.000630453
  C    0.0407741457   -1.3788577259   -0.0000892969
  H   -2.1026235312   -1.2818252587   -0.0014361855
  H   -2.1917744187    1.1604652063   -0.0015370261
  N   -0.0807824485    2.8174048061    0.0000482432
  H    2.0836361638    1.3344597753    0.0012421449
  H    2.1727275524   -1.1396856573     0.001189592
  H    0.0760556581   -2.4598820808   -0.0001123865
  C   -0.6988115112    4.9222381996    0.0010302635
  H   -2.1695604311    3.2539288311    0.0035021331
  C    0.7036614809    4.7828604736   -0.0010499914
  H   -1.2820425099    5.8258120734    0.0018895921
  H    1.4586730774     5.552268031   -0.0027372199
  N    1.0649833742    3.5160621186   -0.0015226641
  C   -1.1647839196       3.6348735    0.0018345603
