 23                                                
                                                   
  C   -1.1905515754   -0.6706761089   -0.0164912658
  C   -1.2123862142    0.7146099198   -0.0102506187
  C   -0.0200324048    1.4359443056    0.0051041475
  C    1.1956644778    0.7444398412    0.0023012525
  C    1.2170577368   -0.6355618427    0.0028228562
  C    0.0207412799    -1.350545985    -0.004836969
  H   -2.1189008893   -1.2304258108   -0.0379544202
  H   -2.1615181052    1.2326697925    -0.045897153
  C   -0.0162351205     2.921095547    0.0170272894
  H    2.1138594841    1.3149788525   -0.0014807727
  H     2.150283919   -1.1841573149    0.0088018211
  C    0.0282377795   -2.8303713594   -0.0074235122
  C   -1.0316823505    5.0331297417    0.5142574425
  H   -1.9400097331    3.1436877285    0.9638462241
  C    1.1153686962     4.845167383   -0.4869036924
  C    0.0903601895    5.6517046962   -0.0122296226
  H   -1.8500481776    5.6188047743    0.9130048723
  H     2.016071583    5.2875520136   -0.8986400623
  H    0.1783818408    6.7285748836   -0.0489217011
  N    1.0714477647    3.5197286552   -0.4737196763
  C   -1.0881604297    3.6506341684    0.5330942998
  O    1.0223901541   -3.5054919842    0.0055863554
  H   -0.9746837151   -3.3007633973   -0.0219307545
