 24                                                
                                                   
  C   -1.1703549383    -0.643970825    0.0020805031
  C   -1.2222579083    0.7495210578   -0.0019369613
  C     -0.01261567    1.4581305531    0.0027068182
  C     1.195775432    0.7600643589   -0.0150761136
  C     1.226142928    -0.622430319    0.0000470685
  C    0.0322016136   -1.3299850554    0.0142652749
  H   -2.1013850997   -1.1984397071   -0.0187158511
  C   -2.5742241985    1.4144327752   -0.0596891536
  C    0.0598472989    2.9439930929    0.0175764756
  H    2.1149421262    1.3301192942   -0.0430781781
  H    2.1738415871   -1.1446595743   -0.0041369926
  H    0.0368835178   -2.4123858865     0.020329649
  C   -0.6088337537    5.0887998144    0.8564905858
  H   -1.4468668578     3.229011679    1.5258236576
  C    1.0955142681    4.8253944817   -0.7770812988
  C    0.3259087327    5.6670691831    0.0127912388
  H   -1.2192936059    5.7007387033    1.5083736639
  H    1.8482917708    5.2345899695   -1.4425963127
  H    0.4657750162    6.7383759201   -0.0285966935
  N    0.9758006842    3.5033674889   -0.7777834188
  C   -0.7445786589    3.7117007338    0.8613811911
  H   -2.9610964386     1.629504692     0.938953925
  H   -2.5440227272    2.3534135235   -0.6105134962
  H   -3.2902990789    0.7539269558   -0.5473595012
