 24                                                
                                                   
  C   -1.1410500549   -0.7046373253   -0.1164611623
  C   -1.1816724873    0.6814856661   -0.0654386572
  C   -0.0061115086    1.4226761065    0.0271289943
  C    1.2136314009    0.7482868449    0.0532307296
  C    1.2546309075   -0.6361062905    0.0163366963
  C     0.076627913   -1.3674360909    -0.066870583
  H   -2.0622884301   -1.2663994604   -0.2014081622
  H   -2.1346625344     1.190416098   -0.1265526686
  C   -0.0129074675    2.9103706841    0.0489034159
  H    2.1265546352    1.3273733706    0.0953736024
  H    2.2084258645   -1.1468437094    0.0473462532
  H    0.1085423511   -2.4487128275   -0.1010769808
  C   -0.9048216081      3.65601663    0.8389571908
  C   -0.8149441597    5.0407932531    0.7542002352
  C    0.9776230215    4.8094114807   -0.7790604208
  C    0.1218294832     5.637303601   -0.0698041912
  H   -1.4797524102    5.6509309881    1.3552361558
  H    1.7472781461    5.2246984736   -1.4206880689
  H     0.201599748    6.7128546823   -0.1478073636
  N    0.9158185631     3.487369826   -0.7188915975
  C    -1.896662028    3.0396964096    1.7888764393
  H   -2.8507174682    2.8349302752    1.2991116707
  H   -1.5305920084    2.0999304656    2.1990497634
  H   -2.0946560586    3.7248644383    2.6128649691
