 23                                                
                                                   
  C   -1.2029405169   -0.6397210626   -0.0000030333
  C   -1.2190313829    0.7676103884    0.0002108729
  C    0.0046560549    1.4677631683    0.0001831987
  C    1.2111084303    0.7477686869   -0.0000771431
  C    1.2013792708   -0.6259152246   -0.0002911497
  C   -0.0144890378   -1.3263724679   -0.0002520162
  H   -2.1461855057   -1.1728508053    0.0000341614
  C   -2.4559765581    1.4955653751    0.0004871969
  C   -0.0125205861    2.9170695472    0.0004116778
  H    2.1388143598    1.3027350731   -0.0000999831
  H     2.135615095   -1.1722838283   -0.0004905733
  H   -0.0134792635   -2.4087251079    -0.000418386
  C   -1.2297181426     4.996559993    0.0006859565
  C    1.1482889126    4.8875026275    0.0003066137
  C   -0.0271308222    5.6538890174    0.0005546264
  H   -2.1665470132    5.5418291398    0.0008601844
  H    2.1154610169    5.3799937268    0.0002188191
  H    0.0286126551    6.7336921605    0.0006266011
  N    1.1632652225    3.5741390658    0.0002182213
  C   -1.2505049312    3.5929112683    0.0006080003
  C   -2.4729875432    2.8448533784    0.0007179656
  H    -3.409801009    3.3891579267    0.0009880792
  H   -3.3816338352    0.9325892933    0.0006044496
