 58                                    
                                       
  C    2.821406    2.776305    0.601892
  C    2.480579    1.811256     1.53977
  C    1.433307    0.922764    1.274106
  C    0.680872    0.975534    0.095842
  C    1.089227    1.928397   -0.848796
  C    2.134296    2.824702   -0.611086
  H   -1.426748    1.347592   -3.164076
  H    3.036517    1.739844    2.471888
  N    1.187245   -0.070995    2.266692
 Co   -0.871438   -0.141858   -0.180916
  C    -2.78883   -0.249193   -1.176974
  C   -2.925483   -0.664866    0.159777
  C   -2.491166    0.427025    1.000608
  C   -2.146213    1.523869    0.169494
  C   -2.245763    1.082954   -1.186126
  C   -3.094067   -1.013535   -2.427696
  C   -3.382894   -1.996497    0.672825
  C   -2.482811     0.40762    2.499415
  C   -1.742597    2.885318    0.642106
  C   -2.030951    1.891768   -2.430406
  H      -2.992    2.123307   -2.902126
  H   -2.222309   -1.057219   -3.089392
  H   -3.424965   -2.032831   -2.218688
  H    -3.89673   -0.510143   -2.977033
  H   -3.618506    -2.68218   -0.143829
  H   -2.610811   -2.464809    1.293151
  H   -4.283875   -1.883144     1.28369
  H   -2.367667   -0.613456     2.87555
  H   -1.671411    1.019206    2.906102
  O    0.047691   -1.108148   -1.624496
  H    1.020323    -0.96888   -1.524468
  C    -0.13946   -2.534228   -1.669979
  H   -2.639523    3.480729    0.843727
  H     3.20262    0.757689   -0.939123
  O    4.033109    0.239174   -0.927758
  O    2.619501   -1.485203   -1.124676
  C    3.756479   -1.052536   -1.031285
  H   -1.535604    2.840791    -2.21463
  H   -3.424579    0.799853    2.897393
  C    0.471922   -1.189174    2.123054
  H     3.63131     3.46761     0.80705
  H    0.563874    1.988257   -1.799732
  H    2.407282    3.556797   -1.364504
  H   -1.144064      3.4122   -0.103531
  H   -1.155264    2.835473    1.563006
  C    4.986058   -1.910073   -1.027567
  H     5.57462   -1.690416   -1.922664
  H    5.606152   -1.668058   -0.161643
  H    4.703558   -2.960877   -1.018301
  C    0.515869   -2.202012     3.23082
  H   -0.502745   -2.387349    3.580769
  H    0.900752   -3.140741    2.824036
  H    1.137361   -1.892374    4.072038
  H    1.716114    0.019769    3.125405
  O   -0.222424   -1.437456    1.111789
  H    0.315214   -3.004193   -0.796543
  H   -1.212923    -2.72436   -1.677206
  H    0.310448   -2.920285   -2.586076
