 62                                    
                                       
  C   -3.067944   -1.406234     1.47201
  C   -2.204938   -0.656982    2.264806
  C   -1.000946   -0.176816    1.749633
  C   -0.606773    -0.44144      0.4287
  C   -1.508974   -1.153054   -0.360937
  C    -2.72519    -1.64851     0.13737
  H    0.584552   -1.246856     -3.2295
  H   -2.489841   -0.435615    3.290897
  N   -0.201972    0.627225    2.616528
 Co    1.134303    0.068692   -0.224685
  C    2.779093   -0.431648   -1.530231
  C    3.269159   -0.202315   -0.234051
  C    2.595574   -1.119407    0.656496
  C      1.7596   -1.965537   -0.122681
  C    1.795111   -1.485093   -1.463597
  C    3.132292    0.277741   -2.800076
  C    4.255936     0.83347    0.210295
  C    2.834109   -1.223333    2.132798
  C     0.97817   -3.130642    0.398347
  C    1.080713   -2.039729   -2.659542
  H    1.789757   -2.535107   -3.331281
  H    2.234081    0.646352   -3.306657
  H    3.805992    1.119844   -2.628701
  H    3.633234   -0.416203   -3.483379
  H    4.601397    1.444485    -0.62606
  H    3.813592    1.503534    0.955484
  H    5.132012    0.357029    0.661265
  H    3.150768   -0.260892    2.547237
  H    1.933113    -1.54694    2.662914
  O    0.361277    1.270975   -1.568531
  H   -0.622235    1.359176   -1.523298
  C    0.886101    2.604646   -1.654845
  H    1.643353   -3.995153    0.498058
  H   -2.722886    0.847956    0.192434
  O   -3.435208    1.511085    0.095178
  O   -2.115355    2.196753   -1.576915
  C   -3.148421    2.295468   -0.938311
  H    0.327571   -2.777392    -2.37449
  H    3.625952   -1.948306    2.349227
  C    0.787526    1.443959    2.255756
  H   -3.997573   -1.768125    1.892719
  H   -1.284732   -1.374872   -1.402511
  H     0.16208   -3.404122   -0.272936
  H    0.544677   -2.920581    1.380215
  C   -4.227358     3.29397   -1.228928
  H   -5.127773    2.762888   -1.549595
  H   -4.477029    3.845358   -0.319704
  H   -3.898141    3.973282   -2.012583
  C    1.375617    2.349136    3.299698
  H    2.443218    2.133708    3.394822
  H    1.278245    3.381986    2.955909
  H    0.897968     2.24715    4.275063
  O   -3.484832   -2.335548   -0.737358
  C   -4.730892    -2.83737   -0.283726
  H   -5.177418   -3.344674   -1.137184
  H   -4.592505   -3.551485    0.535431
  H    -5.38582   -2.022079    0.043243
  H   -0.497181    0.669452    3.584151
  O    1.240832    1.499341    1.087347
  H    1.972706    2.525122   -1.713253
  H    0.497345     3.07913   -2.557155
  H    0.610051    3.184148   -0.771654
