 67                                    
                                       
  C    3.927386    1.021478   -2.143322
  C    2.604452    1.330758   -2.436655
  C    1.575597    0.775489   -1.671023
  C    1.824418   -0.106869   -0.612842
  C    3.170066   -0.352048   -0.310501
  C    4.216914    0.188738    -1.06327
  H    2.684894   -3.087731    1.683676
  H    2.374739    2.012607   -3.252195
  N    0.242228    1.135682   -2.025549
 Co    0.365271   -0.966429    0.311111
  C    -0.12389   -2.844826      1.2665
  C   -1.238914   -2.366953    0.545535
  C   -0.839696   -2.249761    -0.83616
  C    0.511202   -2.656908   -0.954455
  C    0.984553   -2.962671    0.365469
  C   -0.022608   -3.138267    2.731688
  C   -2.599556   -2.004077    1.062559
  C   -1.746617   -1.803845   -1.942598
  C    1.302368   -2.746216   -2.222366
  C    2.331227   -3.506123    0.735762
  H    2.283572     -4.5944    0.852525
  H    0.752587   -2.528452    3.208275
  H   -0.968638   -2.968794    3.249858
  H    0.251211   -4.188561    2.875906
  H   -2.653274   -2.097898    2.149684
  H   -2.858782   -0.970766    0.800221
  H   -3.363904   -2.659949    0.633676
  H    -2.50572   -1.108149   -1.569892
  H   -1.191955   -1.316404   -2.750127
  O    0.912021   -0.149321    2.006885
  H    1.449481    0.660783    1.825217
  C   -0.153063    0.267042    2.877744
  H    1.199798   -3.747445   -2.654102
  H    3.286958    1.994695    0.127732
  O    3.315419    2.947136     0.35291
  O    1.804998    2.332831    1.887789
  C    2.495454    3.191333    1.365001
  H    3.076859   -3.288174   -0.032264
  H   -2.270239    -2.66429   -2.372807
  C   -0.812322    1.118817   -1.175618
  H    4.725555     1.44946   -2.739911
  H    3.414263   -1.000559    0.528645
  H    5.247206   -0.038182   -0.808667
  H    2.363667    -2.55491   -2.047322
  H    0.953063   -2.021584   -2.962957
  C    2.520532    4.626906    1.796929
  H    3.511366    4.860896    2.195902
  H    2.352612    5.276964    0.935453
  H    1.763714    4.795777    2.560318
  H   -1.983602    2.137567   -2.506378
  H    0.134184    1.628126   -2.903182
  N   -1.952389    1.719966   -1.585435
  C   -3.189614    1.602458   -0.876926
  C   -4.305835     1.10919   -1.548706
  C   -3.273834    1.988983    0.459222
  C   -5.518363    0.997172   -0.873555
  H   -4.222783    0.810974   -2.590487
  C   -4.484954    1.854999    1.130508
  H   -2.398889     2.39439    0.955595
  C   -5.606941     1.36099     0.46735
  H   -6.390287    0.618955   -1.396492
  H   -4.555998    2.153271    2.171323
  H   -6.551049    1.267737    0.993412
  O   -0.763266    0.572601   -0.046875
  H   -0.671956   -0.631089    3.212667
  H    0.276523    0.787407    3.734814
  H   -0.847551    0.921059    2.345498
