 65                                    
                                       
  C    0.801051    3.110933   -2.555484
  C   -0.309316    2.458049   -2.034255
  C   -0.121921     1.33573   -1.220251
  C    1.157362    0.838241   -0.904055
  C    2.255645    1.539297    -1.41145
  C    2.082825    2.654572   -2.237723
  H    4.317852   -0.693186    0.930853
  H   -1.298939    2.846775   -2.264021
  C   -1.200866    0.541007   -0.589553
 Co    1.058253   -0.783197    0.153925
  C    2.090345   -2.510195    0.910163
  C    0.837806   -2.888168    0.387489
  C    0.808982   -2.495983   -1.002654
  C    2.060644   -1.915333   -1.329455
  C    2.831034   -1.841016   -0.123947
  C    2.600815   -2.676382    2.307979
  C   -0.309049   -3.542237     1.09732
  C    -0.35296   -2.707145   -1.924539
  C    2.485432   -1.469741    -2.69393
  C    4.228552   -1.322532    0.039741
  H    4.936414   -2.151564    0.146292
  H    2.866581   -1.710384    2.750649
  H     1.87209   -3.168715    2.955175
  H    3.505295   -3.293385    2.297147
  H   -0.115408   -3.647444    2.167237
  H   -1.229309   -2.961201    0.971657
  H   -0.489426   -4.542648    0.691189
  H   -1.301285    -2.55973   -1.398867
  H   -0.321689   -2.015692   -2.771129
  O    1.321394    0.196069    1.832144
  H    1.252574    1.172063    1.701121
  C     0.42679    -0.12294    2.911085
  H     2.82793   -2.338149   -3.266629
  H    1.464436    3.406184   -0.049252
  O    1.136801    4.208478    0.404946
  O    0.578116    2.720178    1.978133
  C    0.612261    3.870638    1.575125
  H    4.544483   -0.734207   -0.824751
  H   -0.345052   -3.725906   -2.326125
  N   -2.484961    0.804994   -0.835861
  H    0.672723    3.981636   -3.188845
  H    3.266613    1.212772    -1.17688
  H    2.950412    3.176554   -2.630489
  H    3.306672    -0.75215   -2.649999
  H    1.664457    -1.00325   -3.244353
  C    0.081351    5.047411    2.335667
  H    0.911337    5.714429    2.584477
  H   -0.614573    5.610121      1.7095
  H   -0.408996    4.707373    3.245518
  C   -3.636984    0.101179   -0.383171
  C   -3.647476   -0.665582    0.783355
  C   -4.794076     0.23513   -1.152568
  C   -4.825714   -1.306757    1.156534
  H   -2.757525   -0.752396    1.390824
  C   -5.962803   -0.406286   -0.763704
  H   -4.777425    0.835296   -2.059013
  C   -5.981413    -1.18447    0.391204
  H   -4.836853   -1.902201    2.063593
  H   -6.857735   -0.298424   -1.367095
  H   -6.892937   -1.687705    0.694741
  H   -2.670115    1.536525   -1.510443
  O   -0.857461   -0.397437    0.181311
  H   -0.592336    0.180855    2.663314
  H    0.466902    -1.20264    3.060127
  H    0.764045    0.388949    3.813704
