 65                                    
                                       
  C     2.01158    2.480124   -2.763578
  C    0.663944     2.29259   -2.486248
  C    0.273251    1.313345   -1.565956
  C    1.195783    0.486821    -0.91377
  C    2.548537     0.73648   -1.184777
  C    2.964284    1.708317   -2.097615
  H    3.724744   -1.957927    0.887231
  H   -0.082714     2.91481   -2.974163
  N   -1.123631    1.203926   -1.315641
 Co    0.622839   -0.962038    0.220363
  C    1.012414   -2.961306    0.933466
  C   -0.298062   -2.895353    0.431987
  C   -0.218739   -2.464915   -0.944886
  C    1.154649   -2.356243   -1.299668
  C    1.920599   -2.569978   -0.117919
  C    1.467442   -3.330343    2.311125
  C   -1.582174   -3.138824    1.163893
  C   -1.391592    -2.28077   -1.861252
  C    1.676636   -2.051058   -2.668558
  C    3.413054   -2.558884    0.026253
  H    3.789734   -3.575806    0.179191
  H    2.133778   -2.565906    2.724712
  H    0.630388    -3.47194    2.997999
  H    2.029574   -4.269582    2.274219
  H   -1.408408   -3.354837    2.220215
  H   -2.240952   -2.265629    1.100535
  H   -2.112184    -3.99245    0.729736
  H   -2.286446   -1.983642   -1.304459
  H   -1.190527   -1.518076   -2.620015
  O    1.466238   -0.145326    1.796067
  H    1.785011    0.772354    1.619746
  C     0.67933   -0.068013    2.995868
  H    1.686611   -2.970199   -3.264254
  H     2.09392    2.931097   -0.283181
  O    1.978285    3.786678    0.177029
  O    1.882525    2.457228    1.974813
  C    1.880836    3.572208    1.482813
  H    3.901551   -2.158917   -0.864977
  H   -1.625124   -3.214875   -2.383224
  C   -1.703015    0.593475   -0.274434
  H    2.315288    3.237895   -3.477397
  H    3.307143    0.139639   -0.680605
  H     4.02154     1.86183   -2.288577
  H     2.69365   -1.655668   -2.636521
  H    1.052463   -1.317409   -3.186018
  C    1.781613    4.842067    2.273214
  H    2.717052    5.399015    2.171016
  H     0.98179    5.467852    1.871177
  H    1.599958     4.61091    3.320879
  C   -5.386656    0.994174    -1.05107
  H   -3.607922    0.950128   -2.242943
  C   -5.095317    0.669094    1.326334
  H   -3.059517    0.397394    1.990779
  C   -5.927223    0.883824     0.22866
  H   -6.036594    1.137647   -1.907458
  H   -5.518987    0.578036    2.320722
  H   -7.000736    0.955956    0.368985
  C    -4.01175     0.90718   -1.234401
  C   -3.174314    0.705513   -0.131525
  C   -3.721185     0.56941    1.148071
  H   -1.725187    1.787453   -1.884177
  O   -1.049997   -0.050383    0.582908
  H     0.26722   -1.060902    3.181048
  H    1.325181    0.228734    3.823597
  H   -0.132499    0.651387    2.873181
