 68                                    
                                       
  C    1.179682    3.241307    1.869184
  C    1.541473    1.898298    1.864287
  C    0.796355    0.989147    1.102958
  C   -0.381542    1.375471    0.429896
  C   -0.685321    2.740173    0.405505
  C    0.092553    3.667866    1.106863
  H   -3.087135    1.926793   -2.156593
  H    2.379608     1.57092    2.470922
  C    1.049927    -0.47241    0.988083
 Co    -1.40973   -0.167647    -0.14671
  C    -3.25014   -0.766854   -1.080946
  C   -2.904096   -1.675563    -0.05545
  C     -2.8413   -0.930926    1.177154
  C   -3.148178    0.423328    0.902883
  C   -3.338467    0.545669   -0.516336
  C   -3.431781   -1.043996   -2.541448
  C   -2.640224   -3.147794   -0.165036
  C    -2.50744   -1.518638    2.512884
  C   -3.271618    1.507907    1.928945
  C   -3.736765     1.76793   -1.289626
  H   -4.762822    1.666923   -1.659511
  H   -2.707591    -0.48669   -3.145657
  H   -3.335108   -2.107023   -2.771549
  H   -4.432621   -0.727668    -2.85295
  H   -2.696007   -3.491949   -1.200279
  H   -1.647282   -3.400251    0.222861
  H   -3.377292   -3.713949    0.413117
  H    -1.73171   -2.283476    2.420935
  H   -2.150835   -0.754282    3.207682
  O   -0.445854   -0.233753   -1.862281
  H      0.3779    0.307505   -1.816572
  C   -0.056058   -1.533219     -2.3344
  H   -4.215817    1.391768    2.471188
  H    1.346235    2.661193    -0.83556
  O    2.254248    2.809033   -1.173644
  O    2.064133    0.673042   -1.822783
  C    2.718889    1.701621   -1.728752
  H   -3.704395    2.666525   -0.669927
  H   -3.394699   -1.985959    2.953398
  H    1.748526    3.953617    2.456652
  H   -1.553373    3.095647   -0.144247
  H   -0.168191    4.721715    1.081154
  H   -3.266824    2.499476    1.473407
  H    -2.45599    1.473835    2.656369
  C    4.136672    1.839444   -2.195987
  H    4.249164    2.759286   -2.773676
  H    4.793255    1.918035   -1.323528
  H    4.416814    0.973504   -2.793058
  O    0.042994   -1.180512     0.66723
  H    0.534789    -2.05212   -1.575313
  H   -0.968803   -2.093502   -2.538018
  H    0.518505    -1.41852   -3.254986
  C    3.529959   -0.379254    1.133491
  C    2.305772   -2.520104    1.356914
  C    4.406132   -1.017339    0.050698
  H    4.016015   -0.447827    2.115416
  H    3.370636    0.671516    0.897175
  C    3.154529   -3.164247    0.265402
  H    2.765912   -2.703477    2.336858
  H    1.290197   -2.910822     1.37331
  C    4.542671   -2.526912    0.235733
  H    5.385795    -0.52815    0.072245
  H    3.946939   -0.809795   -0.923745
  H    3.216722   -4.239811    0.456044
  H     2.66119    -3.02909   -0.705192
  H    5.147668   -2.953688   -0.568905
  H    5.064051   -2.740728    1.178127
  N    2.227858   -1.057273     1.20114
