 62                                    
                                       
  C    2.618241   -0.215386   -2.890067
  C    2.427946    0.875563   -2.049233
  C    1.428423    0.841369   -1.067091
  C    0.558687   -0.255942   -0.945918
  C    0.817376   -1.354833   -1.775953
  C    1.829119   -1.352258   -2.738527
  H   -1.923671    -3.33137   -0.747328
  H    3.068688     1.74035   -2.169652
  N    1.327043    1.948665   -0.168905
 Co    -1.00972   -0.251947     0.17934
  C   -3.044095   -0.934351    0.434393
  C   -2.998876    0.461256    0.588339
  C   -2.445763    1.015553   -0.625656
  C   -2.244075   -0.045978   -1.550336
  C   -2.523926   -1.265017   -0.870398
  C   -3.511308   -1.967052    1.412456
  C   -3.371974    1.268833    1.793545
  C   -2.220768    2.473875   -0.891398
  C   -1.799317    0.117956   -2.969723
  C    -2.46977   -2.659747   -1.418492
  H   -3.481582   -3.061966    -1.53609
  H   -2.755218   -2.746366    1.555499
  H      -3.754   -1.534664    2.385341
  H   -4.415008   -2.453806    1.030369
  H   -3.704278     0.63237    2.616213
  H    -2.52136    1.860432    2.148767
  H   -4.187445    1.958209    1.553495
  H   -2.093519    3.024957    0.045458
  H   -1.332317    2.635247   -1.511635
  O   -0.286161   -1.704903    1.286142
  H    0.665743   -1.873355     1.08511
  C   -0.369252   -1.545621    2.712599
  H    -2.65701    0.411237   -3.584698
  H    2.928886   -1.411384   -0.650556
  O     3.75847   -1.496644   -0.138476
  O    2.331151   -2.010798    1.507443
  C    3.471753   -1.865148    1.103376
  H   -1.989193   -2.690377   -2.398721
  H   -3.075067    2.913445   -1.416915
  C    0.558365    1.985234     0.92616
  H    3.395656   -0.178513   -3.645297
  H    0.191752   -2.241223    -1.68546
  H    1.989508   -2.221209   -3.368701
  H   -1.389851   -0.808181   -3.377002
  H   -1.031395    0.890772   -3.067132
  C    4.695976   -2.091958    1.938396
  H    5.233085   -2.961924    1.550225
  H    5.365299   -1.232555    1.860996
  H    4.409237   -2.266656    2.973464
  C    0.722623    3.297182    1.646092
  H   -0.176321    3.894852     1.45109
  H    0.779243     3.13442    2.723929
  C    1.981855    3.900289    1.020696
  C    2.112202    3.186311   -0.334565
  H    1.701024    3.761996   -1.170533
  H    3.151061    2.941744    -0.55672
  H     1.92621    4.982442    0.903532
  H    2.852599    3.672938    1.639477
  O   -0.220185    1.090469     1.32266
  H    0.288492   -0.740904    3.045258
  H   -1.403774   -1.298936    2.954144
  H   -0.089194   -2.485864    3.189907
