 68                                    
                                       
  C    -1.97362     2.69477    2.759078
  C    -0.66062    2.328161    2.495238
  C    -0.39284    1.304845    1.577924
  C   -1.412687    0.607039    0.918593
  C   -2.722553    1.035526     1.17788
  C   -3.014402    2.056585    2.084267
  H   -4.228401   -1.469802   -0.955021
  H    0.157281    2.846893    2.990105
  N    0.981894    1.025158    1.337637
 Co   -1.031789   -0.905658   -0.212292
  C   -1.677594   -2.828744   -0.949802
  C    -0.38154   -2.947141    -0.42167
  C   -0.430525   -2.514246    0.955775
  C   -1.783427   -2.220448    1.284604
  C   -2.546029   -2.321737    0.086084
  C   -2.147071   -3.117285    -2.34177
  C    0.873377   -3.357398   -1.129667
  C    0.740313   -2.487992    1.891966
  C   -2.287968   -1.852885    2.644677
  C   -4.019639   -2.106058   -0.088358
  H   -4.529502   -3.061852   -0.249445
  H   -2.671213    -2.25486   -2.767236
  H   -1.323181   -3.385703   -3.006197
  H   -2.851536   -3.955716   -2.328041
  H    0.679598    -3.61104   -2.173971
  H    1.617076   -2.552206   -1.111844
  H    1.311108   -4.237051   -0.647145
  H     1.66943   -2.269099    1.353592
  H    0.605919   -1.732179    2.672736
  O   -1.712238     0.01413   -1.808397
  H   -1.948927    0.958821   -1.646084
  C   -0.871897    0.004869   -2.975289
  H   -2.438349   -2.764584    3.232854
  H   -1.883804    3.098465    0.257772
  O   -1.690373    3.938977   -0.203654
  O   -1.945438    2.640989   -2.008807
  C   -1.747362    3.736882   -1.514575
  H   -4.466648   -1.640657    0.792888
  H    0.866905   -3.457078    2.386416
  C     1.48747    0.326563     0.30831
  H   -2.179607     3.48855    3.468645
  H   -3.548846    0.545211    0.665337
  H   -3.239543   -1.320416    2.594184
  H   -1.580604   -1.214566    3.181134
  C   -1.555316    4.995995   -2.304984
  H   -2.393711    5.670386   -2.110272
  H   -0.644002    5.502608    -1.97967
  H   -1.506709    4.760471   -3.366198
  H    1.643378    1.567935    1.877837
  H   -4.043314    2.351756    2.262596
  C    2.943484    0.291306    0.105629
  C    3.849338    0.335078    1.119031
  C     5.13156   -0.198783   -1.410293
  C    5.684641    0.741258   -0.354444
  S    3.352206    0.071765   -1.616475
  O    5.177927    0.410316    0.935339
  H    6.766682    0.640202   -0.260693
  H    5.432911    1.781057   -0.587006
  H    5.591225    0.000402   -2.380557
  H    5.331733   -1.235645   -1.129596
  C    3.567315    0.226193    2.592769
  H    3.636296    1.205118    3.082032
  H    2.599535   -0.226072    2.807418
  H    4.352626   -0.396656    3.028283
  O    0.751593   -0.237957   -0.539309
  H    0.012417    0.624646   -2.815594
  H   -0.565164   -1.027682   -3.148598
  H   -1.447523    0.373006   -3.825863
