 51                                    
                                       
  C    3.312608    2.812914   -0.136338
  C     3.37261    1.435697    0.037484
  C     2.18627    0.699543   -0.006254
  C    0.928888    1.300918   -0.188616
  C    0.901378    2.680252   -0.390675
  C    2.082312    3.428912   -0.365499
  H   -2.451466    2.393094   -1.539715
  H     4.31727    0.922927    0.189701
  C     2.17197   -0.762114    0.053699
 Co   -0.529823    0.038609   -0.217131
  C   -2.672793   -0.169297   -0.155779
  C   -2.101592   -1.092915    0.739149
  C   -1.300529   -0.347823    1.683041
  C   -1.463391    1.037893    1.406563
  C   -2.244283    1.151657    0.215261
  C   -3.555818   -0.461575   -1.329204
  C   -2.368602   -2.568453     0.78794
  C   -0.517739   -0.925457    2.824098
  C   -0.917268    2.153045    2.242615
  C   -2.700457    2.404233   -0.473099
  H   -3.787309    2.508578   -0.390227
  H   -3.201233    0.051078   -2.229693
  H   -3.619832   -1.532502   -1.537221
  H   -4.571484   -0.103221   -1.129834
  H   -2.450814   -3.013766    -0.20889
  H   -1.594984   -3.103387    1.344304
  H   -3.317329   -2.753317    1.302768
  H    -0.12535   -1.917802     2.58293
  H    0.330832   -0.286725    3.083949
  O   -0.508082    0.166063    -2.20085
  H    0.178837    0.800455   -2.467851
  C   -0.461036   -1.007586   -3.027477
  H   -1.550314    2.279549    3.127502
  H   -0.119927   -3.072391   -0.373291
  H    1.910187   -4.530358   -0.046873
  H    4.105007   -3.346551    0.382549
  H   -2.252947    3.295035   -0.027853
  C    1.977614   -3.450567   -0.011169
  C    3.185385   -2.790535    0.218295
  H   -1.147269   -1.024501    3.714532
  C    0.862968   -2.649897   -0.188612
  H    4.220893    3.405161   -0.107917
  H    2.039562    4.502868   -0.521011
  N    0.947052   -1.314336   -0.145366
  H   -0.901621    3.099465    1.700193
  H    0.102014    1.948421    2.579017
  N    3.286313   -1.465477    0.240887
  H   -0.041258    3.196274   -0.560477
  H   -1.271017   -1.655376   -2.688362
  H   -0.633111   -0.727374   -4.067801
  H     0.49804   -1.520967   -2.922262
