 58                                    
                                       
  C   -2.734742    3.727358   -0.444534
  C   -1.406966    3.565692   -0.061666
  C   -0.850521    2.283751   -0.035208
  C   -1.617296    1.147384   -0.348162
  C   -2.932656    1.336641   -0.766196
  C   -3.489868    2.618254   -0.817703
  H    -2.72631   -2.435174   -1.816071
  H   -0.812895    4.441507     0.18159
  C    0.581211    2.016057     0.16636
 Co   -0.629025    -0.49121   -0.198866
  C   -0.626979   -2.619193    0.179059
  C    0.089264   -2.002375    1.219089
  C    -0.76656   -1.009402    1.815778
  C   -2.066781   -1.147217    1.242968
  C    -1.96281   -2.065093    0.164501
  C   -0.153646   -3.687188   -0.759642
  C    1.445234   -2.359389    1.745536
  C   -0.395495    -0.10956    2.956029
  C    -3.29817   -0.466599    1.751117
  C   -3.047998   -2.505899   -0.771917
  H   -3.322082   -3.548214   -0.578437
  H   -0.515349   -3.506579   -1.777355
  H    0.937592   -3.756765   -0.786611
  H   -0.537271   -4.665321   -0.449689
  H    2.004716   -2.997536    1.059006
  H    2.054339   -1.478272    1.963254
  H    1.316802   -2.911509    2.683384
  H    0.662278     0.16722    2.911789
  H   -0.983226    0.812732    2.936791
  O   -0.697902   -0.614584   -2.197279
  H   -1.226235    0.155532   -2.469121
  C    0.431716   -0.754573   -3.075724
  H    -3.63914   -0.992965    2.649603
  H    3.593681    3.412463    0.893955
  H    1.184442    3.992866    0.817812
  H   -3.950467   -1.901692   -0.654237
  C    3.278476    1.383569    0.203125
  C    2.852031    2.678212    0.591475
  H   -0.572205   -0.600716    3.919034
  C    2.283133    0.436615   -0.156433
  C    1.525198    2.999858     0.55218
  H   -3.172193    4.719533   -0.472803
  H   -4.517516    2.748442   -1.143181
  N    0.949926    0.762861   -0.118868
  H    -4.11213   -0.485921     1.02482
  H   -3.110003    0.575797    2.018407
  C    4.646105    1.019206    0.141848
  C    2.691264   -0.842984   -0.602685
  C    5.015384   -0.229838   -0.287615
  C    4.024489   -1.163644   -0.669468
  H     6.06317   -0.503823   -0.342023
  H    5.393212    1.753199    0.429218
  H    4.323541   -2.147266   -1.017674
  H    1.930924   -1.566094   -0.879233
  H   -3.552237    0.483412   -1.039536
  H    1.175001    0.022628   -2.880627
  H    0.860753   -1.737862   -2.884841
  H    0.088113    -0.70818   -4.110217
