 53                                    
                                       
  C   -3.789764   -2.214533    0.066417
  C   -2.580273   -2.642297   -0.465116
  C   -1.470216   -1.808346   -0.358237
  C   -1.511021    -0.55114    0.226332
  C   -2.740956   -0.161192    0.770084
  C   -3.869523   -0.973709    0.698663
  H    0.848596   -0.628285   -2.952696
  H   -2.477627   -3.607528   -0.949783
  O    -0.29521   -2.335926   -0.919748
 Co    0.052629     0.54968    0.236385
  C    -0.84202    1.846695   -1.196472
  C   -0.280498    2.592106   -0.134024
  C    1.150203    2.363551   -0.122083
  C    1.446094    1.456348   -1.156255
  C    0.209512     1.05957   -1.773065
  C   -2.262389    1.871913   -1.663681
  C    0.063601    0.132859   -2.943005
  C    2.790438    0.919129   -1.541495
  C    2.105781    3.014496    0.833725
  C   -1.001901    3.545867    0.772609
  H   -0.899152   -0.384534   -2.920828
  H   -2.596105    0.885087    -1.99265
  H   -2.348676    2.563905   -2.508702
  H   -2.033877    3.235256    0.959928
  H    0.128124     0.69037     -3.8835
  H   -2.944189    2.211395   -0.880746
  C    1.840182   -3.187092   -0.501404
  C   -0.320818   -0.312224    3.143769
  C     0.89012   -2.169748   -0.325858
  O    0.062884    0.745612    2.237603
  H   -0.366653    1.569227    2.517649
  H    1.570449   -4.046541   -1.102771
  C    2.353402   -0.968406    1.009706
  C    3.325321   -1.937148    0.917364
  H    3.810086   -3.843055    0.012701
  H    4.267675   -1.816133    1.437185
  N    1.156495   -1.069755    0.383217
  H    3.123437     2.64182    0.699608
  H   -1.038488    4.545064    0.325629
  H    2.752647   -0.156591    -1.74186
  H    3.541127    1.091649   -0.767153
  H   -0.489621    3.659395    1.735296
  H    1.823179    2.839106    1.878114
  H     3.13434    1.410887   -2.457442
  H    2.127391    4.097721    0.677364
  H   -2.832034     0.81613    1.246822
  H    -4.66482   -2.851502   -0.004848
  H   -4.810148   -0.638673     1.12386
  H    2.499128   -0.059756    1.588369
  H   -1.396075    -0.48936     3.09437
  H     0.20956    -1.20561    2.819477
  H    -0.00839    -0.03912    4.152817
  C    3.063442   -3.063513     0.12303
