 51                                    
                                       
  C    -3.86017   -2.038029    -0.12945
  C   -3.642709   -0.675055    0.040331
  C   -2.328086   -0.210906     0.02176
  C   -1.205157   -1.045944   -0.141236
  C   -1.462955   -2.401452   -0.339274
  C   -2.774726   -2.890507       -0.33
  H    1.979507   -2.593289   -1.736751
  H   -4.468707    0.017099    0.174847
  C   -1.956691    1.192417    0.096286
 Co    0.479072   -0.062291   -0.195244
  C    2.618553   -0.184527   -0.258205
  C    2.237425    0.772238    0.700392
  C    1.391596    0.109467    1.666179
  C    1.330132   -1.270968     1.32639
  C    2.018967   -1.444832    0.088301
  C    3.464686    0.040764   -1.472653
  C    2.672229    2.208965    0.728525
  C    0.761277    0.727192    2.877993
  C    0.665166   -2.328251    2.151057
  C     2.23078   -2.716549   -0.678004
  H    3.279861   -3.025449   -0.622209
  H    2.985004   -0.359619   -2.372082
  H    3.675316    1.101882   -1.628761
  H    4.424799   -0.473894   -1.358981
  H    2.519489    2.711671   -0.232033
  H     2.13878    2.773949    1.495449
  H    3.739288    2.271827     0.96483
  H    0.603745    1.800992    2.748729
  H   -0.209458    0.271775    3.093494
  O    0.355864   -0.111551   -2.183506
  H   -0.422458   -0.634621   -2.439204
  C    0.407451    1.107647   -2.940879
  H    1.318309   -2.589826    2.990693
  H   -0.084071    3.229785    1.038853
  H   -2.354265    4.033929    1.013797
  H     1.62781   -3.534538   -0.278245
  C   -2.096501    3.416894    0.154218
  H    1.397926    0.589941    3.758237
  C   -0.613837    2.979289    0.114763
  H   -4.869532   -2.434628   -0.118152
  H   -2.950196   -3.951858   -0.479196
  H    0.477231   -3.236934    1.577148
  H   -0.290004    -1.98694    2.557224
  N   -0.712311    1.525404   -0.037361
  H   -2.425331    3.906631   -0.764342
  H   -0.067678    3.427986   -0.719845
  O   -2.829626    2.170887    0.267664
  H   -0.646345   -3.102868   -0.496965
  H   -0.472821    1.723958   -2.741887
  H    1.308776    1.631847   -2.619788
  H    0.481763     0.87341   -4.003986
