 55                                    
                                       
  C   -4.097697     0.72301     0.01902
  C   -3.098168    1.677496    0.138229
  C   -1.757002    1.287663    0.061302
  C   -1.405864   -0.063069   -0.109153
  C   -2.432271   -0.993604   -0.258963
  C   -3.782527   -0.623894   -0.194783
  H   -0.121274   -3.381414     -1.4122
  H   -3.372042    2.720451    0.270231
  C   -0.628037    2.225399    0.057299
 Co    0.493165   -0.359517   -0.210644
  C    2.043324   -1.859737   -0.160267
  C     2.41291   -0.801854    0.690528
  C    1.362493   -0.641078    1.668555
  C    0.401324    -1.66901    1.460393
  C    0.774645   -2.375446    0.276257
  C    2.791069   -2.380579   -1.348568
  C    3.715447   -0.057985     0.67763
  C    1.344209    0.367353    2.778129
  C   -0.770586   -1.946896     2.34967
  C    0.090852   -3.554354   -0.351423
  H    0.727132   -4.442971   -0.284196
  H   -0.850154   -3.788867    0.150296
  H     3.63766   -1.741609   -1.611862
  H     3.18604   -3.379431   -1.133814
  H    4.088424    0.118648   -0.336297
  H    3.638779    0.903976    1.190187
  H    4.476412   -0.643458     1.20453
  H    1.794588    1.314992    2.467428
  H     0.32175    0.576987    3.103334
  O    0.297624   -0.494481   -2.184118
  H   -0.641446   -0.375979   -2.407136
  C    1.126519    0.278011     -3.0672
  H   -0.425674   -2.481918    3.241026
  H    2.585328    1.866979   -0.562325
  H    2.566449    4.337186   -0.272249
  H     0.38488     5.45491    0.287286
  H   -1.664741    4.065797    0.469942
  H    2.134632    -2.47093   -2.220688
  C    1.651476    3.767402   -0.164002
  C    0.436571    4.380905    0.140857
  H    1.903345    0.000086    3.645082
  C    1.666384    2.392024   -0.324153
  C   -0.708894    3.607899    0.244808
  H     -5.1398    1.024844    0.075667
  H    -2.19815   -2.045365   -0.419283
  N    0.565033    1.636587   -0.203973
  H   -1.262765   -1.026408    2.673024
  C   -4.876518   -1.649708   -0.329128
  H   -4.488038   -2.603233   -0.694604
  H   -5.356071   -1.831074    0.638704
  H   -5.654641   -1.309239   -1.018161
  H   -1.520913   -2.564223    1.853192
  H    0.914315    1.345228   -2.966959
  H    2.158446     0.07438   -2.776966
  H      0.9679   -0.051346    -4.09525
