 55                                    
                                       
  C    3.133741    1.957451    -0.15989
  C     1.88624    2.571875   -0.217232
  C     0.73007    1.800637   -0.085328
  C    0.790986    0.403392    0.085657
  C    2.046451   -0.183585    0.182036
  C    3.205173    0.586318    0.052373
  H    0.586342   -3.156736    1.353996
  H    1.832716    3.647662   -0.353999
  C    -0.63052     2.36201   -0.041964
 Co   -0.928955   -0.447567    0.206795
  C   -1.954279   -2.341941    0.142261
  C   -2.633568   -1.430525    -0.68728
  C   -1.690897   -0.950031   -1.671077
  C   -0.463484   -1.646112   -1.487118
  C   -0.593727   -2.446077   -0.310735
  C   -2.497939   -3.083567     1.32383
  C   -4.098088   -1.108303   -0.650909
  C   -1.991024    0.030214   -2.765295
  C    0.727295   -1.552127    -2.39036
  C    0.422191   -3.371275    0.292324
  H    0.082154   -4.409301    0.216464
  H   -1.834335   -2.990341    2.190016
  H   -3.494264   -2.733668    1.605034
  H   -2.577487    -4.15045    1.088835
  H   -4.494948   -1.073905    0.368741
  H   -4.317033   -0.155934   -1.139879
  H   -4.656283   -1.881789   -1.189022
  H   -2.700356    0.795709   -2.436222
  H   -1.083475    0.539561   -3.099854
  O   -0.692752   -0.548026      2.1782
  H    0.168976   -0.170764    2.422297
  C   -1.715371   -0.086911    3.076395
  H    0.554913   -2.177927   -3.272673
  H   -3.576507    1.055861    0.625372
  H   -4.297829    3.423657    0.375142
  H   -2.560224    5.145975   -0.200024
  H   -0.194224    4.431371   -0.439808
  H    1.383329   -3.306454    -0.22187
  C    -3.25711    3.153237     0.24294
  C   -2.287539    4.103626   -0.071212
  H   -2.427541   -0.478766   -3.631003
  C   -2.859738    1.832951    0.381637
  C   -0.965418    3.706668   -0.207378
  H     4.04238    2.538624   -0.268521
  N   -1.586761    1.441095    0.231241
  H     1.64286   -1.897098   -1.906411
  H    0.900112   -0.527927   -2.730006
  C    4.528737   -0.124793    0.143846
  F    4.706496    -0.64617    1.365572
  F    4.574655   -1.145679   -0.726155
  F    5.556752    0.685092   -0.113107
  H     2.15361   -1.255348    0.337632
  H   -1.833254    0.997353    3.008614
  H   -2.638357    -0.58262    2.771685
  H    -1.46436    -0.38385    4.095799
