 55                                    
                                       
  C   -3.350561   -2.485859   -0.202051
  C   -3.348094   -1.097327    -0.03735
  C   -2.096876   -0.441533   -0.033151
  C    -0.89562   -1.170087   -0.178052
  C   -0.949016   -2.547009   -0.368212
  C   -2.177554   -3.207665   -0.376243
  H    2.456343   -2.709794   -1.297635
  C   -4.685518   -0.408122    0.082276
  C   -1.883445    1.022084    0.003358
 Co    0.697136   -0.108021   -0.234819
  C    2.848047   -0.100995     -0.0437
  C    2.324758    0.922058    0.766898
  C    1.391561    0.316281    1.687075
  C    1.436744   -1.095033    1.499375
  C    2.271116   -1.352463    0.371982
  C     3.82676    0.031548   -1.169454
  C    2.738971      2.3634    0.771643
  C    0.601105    1.040879     2.73556
  C    0.734879   -2.103461    2.354554
  C    2.643152   -2.680659    -0.21853
  H    3.708778   -2.880128    -0.06444
  H    3.486012   -0.513625    -2.05624
  H    3.996466    1.075613   -1.444263
  H    4.793194   -0.393959   -0.878263
  H    2.994419     2.72988   -0.227599
  H    1.961769    3.009077    1.188096
  H    3.629153    2.484466    1.398132
  H    0.272283    2.023688    2.382443
  H   -0.290251    0.474388    3.018192
  O    0.762391   -0.427033   -2.196891
  H    0.009028   -0.994763   -2.434451
  C    0.874085    0.669264   -3.118258
  H    0.737643     2.87217   -0.770604
  H   -0.869016    4.731714   -0.359576
  H   -3.182602    4.132834    0.429939
  H   -3.806214     1.76508    0.639374
  H    2.088369   -3.498535    0.245836
  C   -1.177424    3.701207   -0.231297
  C   -2.457577    3.360834    0.193155
  H    1.200835    1.194751    3.638735
  C   -0.283762    2.668774   -0.465836
  C   -2.813757    2.023174    0.305293
  H   -4.303996   -3.005434   -0.212138
  H   -0.035194    -3.12277   -0.500316
  N    -0.61319    1.378941   -0.329994
  H    0.646019   -3.069567    1.855191
  H   -0.272955   -1.778023    2.623483
  H   -4.839172    0.020187    1.078619
  H   -4.801797    0.392374   -0.655138
  H   -5.489325    -1.12743   -0.084993
  H   -2.220808   -4.283051    -0.52036
  H    1.305239   -2.249482    3.278207
  H    1.755161    1.237224   -2.815373
  H    1.022984    0.282581   -4.127618
  H   -0.013685    1.305043   -3.076246
