 55                                    
                                       
  C    2.650554    3.311753    -0.33075
  C    2.943422    1.957107    -0.19848
  C    1.905444    1.019445   -0.125851
  C    0.561591    1.444509   -0.190072
  C    0.292924    2.802061   -0.344881
  C    1.329384    3.737309   -0.408726
  H   -3.100382    2.138806   -1.127164
  H    3.981278    1.653743   -0.191251
  C    2.075859    -0.45115   -0.116555
 Co   -0.716845    0.020897   -0.228546
  C   -2.789959   -0.520188    0.037402
  C   -1.997324   -1.407898    0.786973
  C   -1.200858   -0.620055    1.697815
  C   -1.595346    0.742256    1.567551
  C   -2.516578    0.821145    0.481033
  C   -3.755315   -0.854135    -1.05772
  C   -2.046315   -2.906263    0.749087
  C   -0.210796   -1.162064    2.685336
  C   -1.123761    1.867594    2.434806
  C   -3.223524     2.03615   -0.043454
  H   -4.297371    1.969099    0.160118
  H    -3.59569   -0.216206   -1.933666
  H   -3.678616   -1.899432    -1.36725
  H   -4.782373   -0.685808   -0.716187
  H   -2.254007   -3.293683   -0.253236
  H   -1.114772   -3.353051    1.105331
  H   -2.847482   -3.261351    1.406073
  H    0.338158   -2.015992    2.275078
  H    0.521559   -0.400768    2.966935
  O   -0.943057    0.365258   -2.174616
  H   -0.360759    1.105191   -2.418726
  C   -0.826723   -0.699144   -3.132508
  H   -1.686187    1.856337    3.374652
  H   -0.054485   -2.852865   -0.895828
  H    1.984126    -4.27285   -0.606258
  H    4.084998   -3.158918    0.166575
  H   -2.859078    2.950491    0.429369
  C    2.026909   -3.202545   -0.443958
  C    3.192181   -2.571126   -0.028115
  H   -0.714419   -1.496601    3.598312
  C    0.898606   -2.419244   -0.612048
  C    3.248297   -1.187839    0.144803
  H    3.460591    4.030846   -0.390177
  N    0.919502   -1.094996   -0.429524
  H   -1.276104    2.838653    1.960859
  H   -0.060867     1.78029    2.672229
  H    1.102947    4.792754   -0.525343
  H    5.107711    -0.12827   -0.187616
  H    4.352168    0.202787    1.380148
  H    5.160686   -1.342575    1.087182
  C     4.53406   -0.572641    0.632198
  H   -0.735458    3.152717   -0.411674
  H    -1.53382   -1.470589     -2.8236
  H   -1.104141   -0.330267   -4.121175
  H    0.188157   -1.104019   -3.142679
