 54                                    
                                       
  C    3.040151    2.833055   -0.189442
  C    3.095953    1.431821   -0.042617
  C    1.877437    0.725899   -0.070787
  C    0.614339    1.344505   -0.211017
  C    0.613894    2.717119   -0.388034
  C     1.82129    3.453862   -0.374409
  H   -2.714556    2.407262   -1.534401
  C    4.321234    0.688741    0.112506
  C    1.894745   -0.701222   -0.003035
 Co   -0.817046    0.035338   -0.207972
  C   -2.962041   -0.166601   -0.175872
  C   -2.401646   -1.102204    0.714891
  C   -1.617542   -0.368546    1.681326
  C   -1.765246    1.018451    1.411893
  C   -2.533018    1.147022    0.210256
  C   -3.826247   -0.449384   -1.365341
  C    -2.67557   -2.577442    0.740413
  C   -0.854764   -0.962332    2.827223
  C   -1.224215    2.125737    2.261831
  C   -2.975735    2.408429   -0.470683
  H   -4.062984     2.51728   -0.399078
  H   -3.443101     0.04982   -2.261653
  H   -3.905394   -1.520515   -1.566806
  H     -4.8387   -0.070618   -1.188827
  H    -2.68622   -3.020516   -0.260798
  H   -1.942815    -3.11376    1.347809
  H   -3.658572   -2.762433    1.186211
  H   -0.443617   -1.943219    2.572037
  H   -0.020676   -0.319824    3.121147
  O   -0.778153    0.101225   -2.193109
  H   -0.096311     0.73545   -2.472281
  C   -0.708787   -1.097383   -2.982245
  H   -1.872145    2.257773    3.135042
  H   -0.344043   -3.093017   -0.213348
  H    1.684334   -4.510385    0.029952
  H    3.920092   -3.414118    0.246365
  H   -2.529288    3.292509   -0.011214
  C    1.781804   -3.431278    0.026733
  C    3.015854   -2.820276    0.145297
  H   -1.505231   -1.088375     3.69905
  C    0.634982   -2.637803   -0.104784
  C    3.100244   -1.416969    0.121508
  H   -0.317754    3.260955   -0.528694
  N    0.682482   -1.308955   -0.111713
  H   -1.187467    3.072743    1.721416
  H    1.784329    4.531075   -0.505702
  C    4.326569   -0.667778    0.196072
  H    3.958263    3.412771   -0.169986
  H   -0.213786    1.909326    2.616821
  H     0.25547   -1.594578   -2.852434
  H   -1.512137   -1.745456   -2.628515
  H   -0.877216   -0.850593   -4.031641
  H    5.258904   -1.212856     0.30671
  H    5.256595     1.23951    0.154838
