 61                                    
                                       
  C    1.296341    3.911427   -0.229498
  C    2.230157    2.994963   -0.699178
  C    1.951332    1.631115   -0.688814
  C    0.741463    1.118294   -0.195926
  C   -0.192687    2.057891     0.23224
  C    0.066879    3.433972    0.226297
  H   -1.873265   -0.517488    3.448711
  H    3.181526    3.356735   -1.085931
  N    2.958509    0.783261    -1.24605
 Co    0.434168   -0.785047    -0.04822
  C   -0.477809   -0.930114    1.880122
  C   -0.711765   -2.158044    1.191293
  C    0.538464   -2.733087     0.86131
  C    1.562974   -1.882591    1.397367
  C    0.943644   -0.784245    2.035164
  C   -1.520112    -0.06145    2.516543
  C   -2.050581   -2.712045     0.81038
  C    0.772131   -3.982909    0.067235
  C    3.036759   -2.124275    1.264532
  C    1.636381    0.327088    2.762848
  H   -0.168051   -4.365768   -0.336902
  H    1.442968   -3.792907   -0.777827
  H    1.218283   -4.769531    0.685695
  H    3.244213    -2.77598    0.410763
  H    3.588833   -1.188668    1.122344
  H    3.435748   -2.610547    2.161442
  H     2.66758    0.445363     2.41757
  H    1.125824    1.281023     2.60778
  O   -2.512859    0.105954   -0.442614
  C   -1.987055   -0.387133   -1.450146
  H   -4.294385    0.476623   -0.623491
  O   -5.239511    0.269898   -0.772227
  H   -2.843486    -1.99386    1.021765
  H   -1.114219    0.923366    2.762189
  O   -0.787835   -0.848579   -1.500146
  H    1.531264    4.968663   -0.241486
  H   -1.175058    1.737752    0.565094
  C   -2.750364   -0.493571   -2.757491
  H   -2.696295   -1.519864   -3.130021
  O    1.824943   -1.190016   -1.354246
  H   -2.268938    0.147722   -3.501369
  H   -2.369999    0.081722    1.846242
  H   -2.089948   -2.943492    -0.25938
  H    3.811552    1.246343   -1.529578
  C    2.825481   -0.493269   -1.610858
  H   -3.789296   -0.189804   -2.621916
  C    3.962262   -1.125645   -2.368874
  H    4.768211   -0.426421   -2.598699
  H    4.360134   -1.955146   -1.778492
  H    3.564696   -1.539402    -3.29829
  H    1.662287    0.120439    3.838724
  H   -2.249805   -3.635307    1.365332
  O   -0.934709    4.227391    0.690296
  C   -0.724289    5.619527    0.669865
  H   -1.637944    6.070877    1.056325
  H    0.120937    5.907022    1.308274
  H   -0.542976    5.981621    -0.34986
  C   -5.395661   -1.062296   -0.360833
  H   -6.425561   -1.362907   -0.572983
  H    -4.72142   -1.750346   -0.896061
  H   -5.219409   -1.193182    0.718367
