 60                                    
                                       
  C    2.682256    2.317642   -0.293622
  C    1.533113    2.949962    0.144507
  C    0.325131    2.244053    0.202127
  C    0.199416     0.91346    -0.20885
  C    1.386334     0.31159   -0.642963
  C    2.601561    0.982541     -0.6751
  H   -2.658279   -4.096743     0.35497
  H    1.574773      3.9874    0.470533
  N   -0.770802    2.975455    0.746837
 Co   -1.425615   -0.122519    0.021061
  C   -1.183222   -1.815729   -1.273547
  C    -2.20255   -2.114959   -0.319547
  C   -3.237877   -1.162455   -0.457687
  C   -2.877552   -0.279387   -1.533515
  C   -1.625375   -0.689303   -2.045543
  C     0.00476   -2.683304   -1.567889
  C   -0.892353   -0.086917   -3.204721
  C   -3.706855    0.879705    -1.99547
  C   -4.479929   -1.039614    0.371812
  C   -2.122437   -3.206331     0.70263
  H   -4.468048   -1.748929    1.202496
  H   -4.572594   -0.032217    0.791618
  H   -5.373937   -1.239816   -0.228884
  H   -4.240495    1.332318   -1.154811
  H   -3.091635    1.654215   -2.461984
  H   -4.450658    0.554096   -2.731192
  H   -1.200612     0.94714   -3.378479
  H    0.187774   -0.084598   -3.037712
  O    0.757229    -1.84535    1.341726
  C    0.111854     -1.1485    2.137234
  H     2.49369   -1.211906    1.462663
  O    3.288893   -0.679113    1.659525
  H   -2.563153   -2.890394    1.652141
  H    0.646866   -2.233072   -2.329707
  O   -0.932503   -0.460132     1.83342
  H    3.631943    2.841837   -0.312306
  H     1.38076   -0.739157   -0.906024
  C    0.572243   -1.050958    3.577857
  H    0.704567   -2.056949    3.983708
  O   -2.418428     1.40131    0.709824
  H   -0.126067   -0.482895    4.191829
  H    0.598792   -2.854029   -0.667545
  H   -1.080308   -3.472921    0.890765
  H   -0.562134    3.922413    1.033518
  C   -2.009567    2.543928    0.984384
  H     1.55428   -0.566215    3.572371
  C     -2.9745    3.510664    1.617131
  H   -2.551714     4.50551    1.766983
  H   -3.860158    3.584661     0.98191
  H   -3.288073    3.101132    2.580425
  H   -1.094245   -0.657584   -4.118163
  H   -0.330657   -3.651611   -1.956583
  C    3.845275    0.278416   -1.129121
  F     3.70005   -1.053762   -1.159877
  F    4.186928    0.657083   -2.379467
  F    4.900043    0.560134   -0.352952
  C    4.372246   -1.554832    1.857113
  H    5.245052   -0.945625    2.105703
  H    4.195846   -2.257969    2.683766
  H    4.609088   -2.131127    0.952861
