 59                                    
                                       
  C    2.882309    2.336052   -1.049881
  C    1.706369    2.991758   -0.723595
  C    0.536692    2.252801   -0.511061
  C    0.475354    0.857307   -0.639304
  C     1.67733    0.246277   -0.992122
  C    2.863275    0.951383   -1.190854
  C   -1.616475   -2.132427    0.579965
  H    1.695319    4.074359   -0.611753
  N   -0.598065    3.020037   -0.119664
 Co   -1.073576   -0.139583    -0.03797
  C    0.715636   -2.927593   -0.217572
  C   -1.469267    -2.60571    1.992805
  C   -4.030399   -1.133084    0.683365
  C   -3.324646   -0.460117   -2.302417
  H    1.325885   -2.907086   -1.124496
  H    1.297025   -2.494442    0.600785
  H    0.514424   -3.979421    0.014807
  H   -0.421223   -2.560415    2.298911
  H   -2.049061    -1.98614    2.681838
  H   -1.814987   -3.641285    2.087825
  H   -3.980519   -1.322874    1.758108
  H   -4.271338   -0.074396    0.539443
  H   -4.856522   -1.725633     0.27498
  H   -3.854262    0.357147   -1.804229
  H   -2.775765   -0.042161   -3.150092
  H   -4.072526   -1.157094   -2.696996
  H   -0.587239   -0.577084   -3.433082
  H    0.696051    -1.61501   -2.820205
  O    1.255148   -0.653768    1.924786
  C    0.415636    0.150779    2.338074
  H    3.038076   -0.177594    1.492021
  O    3.979611   -0.286344    1.261582
  H   -0.724008   -2.336178   -3.587992
  C   -0.579946   -2.191612   -0.400373
  O   -0.694666    0.437018    1.745216
  H    3.806459    2.892231    -1.18375
  H    1.746952    -0.83326   -1.059176
  C    0.646654    0.919633    3.626474
  H   -0.252416    0.898602    4.246342
  O   -2.225881    1.426455    -0.13752
  H    0.854312    1.965607    3.379061
  C   -1.092092   -1.610194   -1.609987
  C   -2.407661   -1.161778   -1.348567
  H   -0.427098     4.00397    0.038943
  C   -1.857655    2.605892    0.020479
  H    1.495215    0.502708    4.168442
  C   -2.893085    3.635533    0.382768
  H   -2.507438    4.656425    0.372651
  H   -3.725142    3.554005   -0.319655
  H   -3.273283    3.401347    1.380522
  C   -0.386587    -1.52715   -2.930488
  C   -2.736261   -1.481202     0.01306
  C    4.105915    0.198823   -1.487552
  O    4.123912   -0.959753   -1.836699
  H    5.045245    0.779641   -1.387667
  C    4.192037   -1.677604    1.190877
  H    5.266972   -1.844353     1.07925
  H    3.849381   -2.188374    2.101012
  H    3.690731   -2.130219    0.323506
