 60                                    
                                       
  C    3.551896    1.371726   -1.291298
  C    2.729003    2.286009   -0.643128
  C    1.419369    1.883113   -0.316986
  C    0.888538    0.629717   -0.646698
  C    1.770384   -0.243205   -1.295287
  C    3.081477    0.102195   -1.605822
  H   -0.759077   -3.943749   -1.107831
  C    3.250818    3.658952   -0.290783
  N    0.655637    2.848935    0.408814
 Co    -0.86319    0.068358   -0.013646
  C   -1.184122   -1.857196   -0.923605
  C   -2.012324   -1.754911    0.229662
  C   -2.879688   -0.647744    0.064065
  C   -2.620273    -0.08178    -1.22859
  C   -1.581562   -0.821693   -1.838969
  C   -0.237173   -2.985831   -1.210503
  C    -1.91567   -2.632064    1.439618
  C   -3.874647   -0.120567    1.053041
  C   -3.329838     1.11286   -1.787725
  C    -1.03302   -0.618183   -3.218282
  H   -3.768573   -0.622747    2.017826
  H   -3.732052    0.953255    1.216021
  H   -4.901458   -0.275858    0.703656
  H    -3.54756    1.837539   -0.998402
  H   -2.730389    1.617131   -2.549941
  H   -4.278976     0.81497   -2.247255
  H   -1.232094    0.393419   -3.580337
  H    0.048193   -0.771772   -3.248802
  O    1.135151   -1.768225    1.416661
  C    0.737888   -0.830287    2.111044
  H    2.545738   -2.184612    0.273816
  O    3.068555    -2.81543   -0.254011
  H   -0.967325   -3.172667    1.444675
  H    0.140521   -2.929174   -2.235195
  O   -0.169407    0.019758    1.765377
  H    1.453949   -1.253791   -1.527013
  C    1.319559   -0.587646     3.49252
  H    1.935582   -1.433758    3.796323
  H    1.934845    0.316944    3.462898
  O   -1.407099    1.883225    0.405735
  H    0.619799   -2.984705   -0.532994
  H   -1.965196   -2.038867     2.35798
  H    1.162182    3.662964    0.726283
  C   -0.639605    2.817244    0.709724
  H    0.518435   -0.418508    4.215672
  C   -1.212401    3.993607    1.453727
  H   -0.505762    4.818017    1.565045
  H   -2.098634    4.344278    0.920632
  H   -1.530213    3.652293    2.442334
  H   -1.496454   -1.323405   -3.917724
  H   -2.739516   -3.354416    1.455446
  H     3.73405   -0.633468   -2.064788
  H    4.571251    1.658962   -1.535166
  H    2.639248    4.459479     -0.7257
  H    3.298329    3.822438    0.794646
  H     4.26616    3.785559   -0.671978
  C    3.075593   -4.018508    0.476167
  H    3.572074   -3.911763     1.45071
  H    2.060707   -4.402455    0.654784
  H     3.62608   -4.759208    -0.11033
