 63                                    
                                       
  C   -1.863664    3.316168    0.645131
  C    -0.61946    3.473642    0.043649
  C    0.149928    2.321279   -0.192512
  C   -0.270768    1.037217    0.169166
  C   -1.539137    0.946691    0.749805
  C    -2.35036    2.057392    0.993451
  H   -0.632515   -2.719353    3.165179
  C   -0.137603    4.847757   -0.356533
  N    1.393764    2.532368   -0.867727
 Co    0.824941   -0.531905   -0.111054
  C    0.477616   -1.666178    1.669812
  C    1.089672   -2.527664    0.708431
  C    2.346239    -1.98345    0.354885
  C    2.538146   -0.791665     1.13302
  C    1.403027   -0.606412    1.954675
  C   -0.795656    -1.93953     2.41216
  C    0.466928   -3.755897    0.118436
  C    3.303326   -2.507639   -0.673017
  C    3.739112     0.10284    1.053676
  C    1.201418    0.486897     2.95876
  H    2.874467   -3.360023   -1.204962
  H    3.543456   -1.738421   -1.415326
  H      4.2398   -2.837381   -0.209846
  H    4.255448   -0.030541     0.09853
  H    3.463055    1.158978    1.147077
  H    4.451621   -0.124975    1.854046
  H    1.829491    1.353321    2.732831
  H    0.163093    0.828161    2.971017
  O   -1.977636    -1.84222   -0.473134
  C    -1.40209   -1.536158    -1.53068
  H   -3.521782   -0.926991   -0.467406
  O   -4.420622    -0.56981   -0.616483
  H   -0.608297   -3.767939    0.301872
  H   -1.144724    -1.04431    2.933858
  O   -0.200076   -1.100854   -1.615791
  H    -1.92782   -0.035201    1.004367
  C   -2.156905   -1.666194   -2.839494
  H   -2.492397   -2.700328   -2.957929
  H   -3.049964   -1.035888   -2.772944
  O    1.962709    0.388165   -1.394466
  H    -1.58293   -2.264262    1.728629
  H    0.617697   -3.789877    -0.96478
  H    1.656252    3.495844   -1.020461
  C    2.155435    1.616638   -1.468194
  H   -1.546391   -1.369234   -3.691511
  C     3.32688    2.106509   -2.277997
  H    3.380223    3.194772    -2.34271
  H    4.248227    1.725136   -1.829943
  H    3.247271     1.68676   -3.283198
  H    1.461753     0.13392      3.9631
  H    0.914117   -4.656543    0.553735
  H   -2.473912    4.198213    0.827762
  H    0.800972    5.123978    0.142576
  H    0.019179    4.930724   -1.439767
  H    -0.87692    5.602688   -0.081411
  C   -3.716443    1.876349    1.603112
  H   -4.297783    1.160711    1.011707
  H   -3.640388    1.482772    2.623101
  H   -4.260671    2.823823    1.648789
  C   -5.265388   -1.690777   -0.715279
  H   -6.273845   -1.332169   -0.938151
  H   -4.956574   -2.371526   -1.521761
  H   -5.305483   -2.269137    0.218692
