 69                                    
                                       
  C    0.686943    3.698359   -1.411526
  C   -0.578787    3.272753   -1.023824
  C   -0.726284    1.935548   -0.607685
  C    0.324241    1.014892   -0.597589
  C    1.578198    1.504839   -0.984079
  C    1.769571     2.82503    -1.37667
  C    0.964788   -2.780676   -0.372899
  C   -1.742543    4.234927   -1.024557
  N   -2.031491    1.573902   -0.146851
 Co    0.081841   -0.821343   -0.052948
  C    2.682195   -1.610125   -1.951508
  C    1.941486   -3.412966    0.570967
  C   -1.248577   -3.654326    0.698449
  C    -2.45208   -1.929108   -1.662206
  H     2.68286   -0.746813   -2.622203
  H    3.364821     -1.3995   -1.126519
  H    3.059621   -2.469529   -2.517948
  H    2.899408   -2.892137    0.536481
  H     1.57752   -3.366605    1.601586
  H    2.097415   -4.465825    0.310439
  H   -0.600157    -4.11527    1.447122
  H   -1.946202   -2.991974     1.22371
  H   -1.829868   -4.451072    0.221545
  H   -3.045991   -2.125306   -0.764203
  H   -2.678482   -0.912846   -2.003655
  H   -2.784615   -2.623691   -2.441506
  H   -1.019185   -0.165581   -3.361144
  H    0.712373    0.157829   -3.293292
  O     3.03096   -0.449047    0.907555
  C    2.164996   -0.270323    1.778935
  H    3.852278    1.153021    0.711353
  O    4.343149    1.995931    0.763067
  H    0.107252   -1.236643   -4.210267
  H    2.765893    3.170133   -1.633515
  O    0.914098   -0.514019    1.637241
  C    1.301037   -1.895417   -1.444287
  H    2.435327    0.840645   -0.952314
  C    2.582689    0.306194    3.117699
  H    3.399641   -0.291267    3.530536
  O   -1.595285   -0.420594    0.853632
  H    1.750981    0.350568    3.820063
  C    0.078767    -1.50718   -2.086867
  C   -0.990205   -2.099713    -1.37666
  H   -2.743123    2.283942   -0.248828
  C   -2.365478    0.527716    0.616749
  H    2.972099    1.313059     2.93028
  C   -0.442748   -2.894352   -0.311814
  C   -0.035189   -0.639327   -3.302498
  H    0.822487    4.730697   -1.723109
  H   -2.562918    3.899982    -1.67358
  H   -2.151525    4.387975   -0.016802
  H   -1.425245    5.212888   -1.392329
  C   -3.764557    0.548309     1.24017
  C    -3.83087    1.716654    2.239587
  C   -4.828711    0.727159    0.145459
  C   -4.007648   -0.768329    1.979496
  H   -3.056359     1.61872      3.0062
  H   -3.703362    2.687494    1.748619
  H   -4.807275    1.718503    2.734182
  H   -4.759175   -0.064951   -0.606857
  H   -5.823729    0.680462    0.598951
  H   -4.752402    1.692578   -0.367106
  H   -4.987897   -0.734255    2.464731
  H   -3.995585   -1.617862     1.29029
  H    -3.24157   -0.940126     2.73899
  C    5.605224    1.676117    1.293689
  H    6.164925    2.608054    1.412722
  H     5.53467    1.192642    2.279577
  H     6.18369    1.012914    0.634208
