 66                                    
                                       
  C   -2.473751    3.873007   -0.065535
  C   -1.088557     3.77812   -0.072425
  C   -0.480695    2.525055    0.034643
  C    -1.21018    1.340736    0.174696
  C   -2.603019    1.477347    0.159839
  C   -3.235586    2.712909    0.037279
  H   -3.012989   -1.712453     3.24464
  H   -0.478627    4.674041   -0.178481
  N    0.951876    2.518245    0.000681
 Co   -0.310129   -0.358566    0.354654
  C   -1.334141   -1.171501    2.029939
  C   -0.644399   -2.241723    1.387251
  C    0.739704   -1.940627    1.374436
  C    0.921903   -0.700672    2.071666
  C   -0.345581   -0.228183    2.483272
  C   -2.797261   -1.120223    2.347672
  C   -1.267663   -3.451717    0.761005
  C    1.828673   -2.752602    0.740826
  C    2.243896   -0.026063    2.285379
  C   -0.621016    1.018278    3.268315
  H    1.409432     -3.4985    0.060649
  H    2.509106    -2.11836    0.161775
  H    2.422885   -3.280522    1.495341
  H    2.949692   -0.282792    1.488446
  H    2.140623    1.063903    2.311857
  H    2.687582   -0.339254    3.236911
  H    0.169299    1.760863    3.123471
  H   -1.562576    1.479573    2.959701
  O   -3.005859   -1.455542   -0.769961
  C   -2.114888   -1.277116   -1.616356
  H   -4.385994   -0.424405   -1.277392
  O   -5.062889    0.177179   -1.647087
  H    -2.35496   -3.378169    0.762772
  H   -3.120408    -0.09369    2.540269
  O   -0.896404   -0.977497    -1.35224
  H   -3.217898    0.587316    0.235667
  C   -2.467145   -1.389803   -3.086759
  H   -2.978192   -2.339268   -3.266169
  H   -3.175559   -0.585219   -3.312954
  O    1.261055    0.329436   -0.584816
  H   -3.386507   -1.506271    1.514018
  H   -0.947469   -3.560991    -0.28001
  H    1.387305    3.430335    0.037926
  C    1.703621    1.483325   -0.435474
  H   -1.587693   -1.302992   -3.723881
  H   -0.680607    0.791749    4.338871
  H   -0.966694   -4.352956    1.306518
  H   -4.319668    2.754439    0.006829
  H   -2.948342    4.844884   -0.157468
  N    3.014296    1.761275   -0.704764
  C    4.026851    0.801572   -0.955506
  C    3.783308   -0.363681   -1.686987
  C    5.310849    1.073711   -0.478239
  C    4.830019   -1.254312   -1.909284
  H    2.791321   -0.565942   -2.069623
  C    6.350078    0.184679   -0.725996
  H    5.491448    1.979778    0.095044
  C    6.112268   -0.988449   -1.436695
  H    4.635586   -2.161826   -2.472121
  H    7.344208    0.407746   -0.352125
  H    6.920439   -1.687711   -1.623409
  H    3.340588    2.699585   -0.519278
  C   -6.104161   -0.631932    -2.13282
  H    -5.76102   -1.342223   -2.900292
  H   -6.598241   -1.207667   -1.336574
  H   -6.851775    0.022236   -2.590016
