 57                                    
                                       
  C   -2.037519    3.178403    1.493196
  C   -0.888197    3.373658    0.742962
  C   -0.128916    2.261066    0.363488
  C   -0.471405    0.948669    0.731999
  C   -1.640669     0.78426    1.477444
  C   -2.417457    1.880689    1.845617
  C    1.002168   -2.483463   -0.077731
  H   -0.608123     4.38542     0.45417
  C    1.060025    2.305681   -0.502926
 Co    0.715792   -0.348129   -0.070183
  C    0.291291   -3.406985   -1.018259
  C     3.06804   -1.938388   -1.578761
  C    3.756466   -0.147052    0.926459
  H   -0.924178   -1.980951     2.77741
  H   -1.571537   -2.530678    1.220369
  H   -0.548662   -3.606726    2.203448
  H   -0.745265   -3.550207   -0.709678
  H    0.281166   -2.995711   -2.032454
  H    0.793699   -4.380086   -1.049373
  H     2.48489    -2.35888   -2.401847
  H    3.436001   -0.958974   -1.900558
  H     3.93641   -2.586756   -1.415447
  H    3.987073    0.335348   -0.027283
  H    3.613701    0.638852    1.672421
  H    4.625813   -0.742542    1.226452
  H     2.01726     0.40469    3.139929
  H    0.372684   -0.200725    3.317691
  H    1.741214   -1.182339    3.873078
  O   -2.071318   -1.353315   -0.658792
  C   -1.568765    -0.73177   -1.606475
  H   -3.513626   -0.365007   -0.119651
  O    -4.39436    0.049802   -0.044988
  C    1.490695   -1.146354    1.742112
  H     -2.6486    4.025949    1.785768
  O   -0.348381   -0.329458   -1.655051
  H   -1.984121   -0.213463    1.735852
  H   -3.343757    1.719944     2.38863
  C    -2.43502   -0.379691    -2.79948
  H   -2.878974   -1.292884    -3.20476
  O    1.643256    1.225405   -0.781413
  H   -1.872428    0.142294   -3.572879
  C    0.518685   -2.053092    1.187621
  C    2.543874    -1.01834    0.804727
  C    2.684587    3.462117   -1.893968
  H    2.512094    2.796526   -2.742895
  H    2.837993    4.479965   -2.251497
  H    3.580077    3.124681   -1.364989
  C    1.400262   -0.496099    3.089816
  C    2.233171   -1.822612   -0.338904
  C   -0.704045   -2.570157    1.883239
  H   -3.253397    0.250401   -2.434225
  N    1.534039    3.447822   -1.007582
  H    1.050772    4.307965   -0.800984
  C   -5.312731   -0.929096    -0.46495
  H   -5.318422   -1.809964     0.19331
  H   -6.310789   -0.482546    -0.44395
  H   -5.114455      -1.277   -1.489444
