 64                                    
                                       
  C     0.79471    3.885656   -1.130472
  C   -0.404347    3.251822   -0.843386
  C   -0.400206    1.874702   -0.586302
  C    0.776191    1.104674   -0.624656
  C    1.967216    1.773422   -0.909344
  C    1.980415    3.145174   -1.149432
  H    4.122661   -2.272025   -1.310567
  H   -1.315599    3.846109   -0.796717
  C   -1.572159    1.077238   -0.190954
 Co     0.46327   -0.716474   -0.072841
  C    1.529354   -2.571145    0.140639
  C    0.159627   -2.826606    -0.13043
  C   -0.141552   -2.264029   -1.415091
  C    1.024306   -1.632714   -1.910929
  C    2.066251   -1.805935   -0.932314
  C    2.266386   -2.951146    1.387243
  C   -0.814389   -3.549696    0.750062
  C   -1.492653   -2.307275   -2.062627
  C    1.181062   -0.929414   -3.225425
  C    3.500188   -1.398864   -1.083705
  H   -1.813117   -3.108285    0.674239
  H    -0.89498   -4.606723    0.471823
  H   -2.277994   -2.013947   -1.359382
  H   -1.546519   -1.635517   -2.922576
  H   -1.712271   -3.321115   -2.414562
  H    0.219224   -0.581017   -3.609914
  H     1.82944   -0.054559   -3.129579
  H      1.6205   -1.601265   -3.971117
  O    2.879008    0.248392    1.535525
  C    1.825696    0.227699    2.183995
  H    3.828479    1.797672    1.141459
  O     4.50252    2.394321    0.764158
  H    3.866703   -0.929945   -0.167402
  H     0.81406    4.954924   -1.314421
  O    0.700986   -0.227844    1.752627
  H    2.931344    3.642162   -1.314621
  C    1.775506    0.788218    3.592747
  H    2.782382    0.870297    4.002285
  H    1.324776    1.784996    3.554414
  O   -1.401313   -0.133318    0.091281
  H    2.911406    1.238407   -0.887201
  H    1.622146   -2.859168    2.266387
  H    2.613061    -3.98862    1.324883
  H    3.622322   -0.686399    -1.90423
  H   -0.507832   -3.500638    1.798157
  H    1.147554    0.163959    4.231072
  N   -2.796777    1.636245   -0.137968
  H   -2.857423    2.595308   -0.451654
  C    -4.03098    1.024033    0.183974
  C   -5.191198    1.668625   -0.253629
  C    -4.12507   -0.152435    0.932977
  C   -6.440011    1.140282    0.045593
  H   -5.111469    2.583475   -0.835945
  C   -5.384437   -0.672344     1.21847
  H   -3.229336   -0.641624    1.288988
  C   -6.542999   -0.037967    0.780452
  H    -7.33274    1.650925   -0.300917
  H   -5.453959   -1.585615    1.801074
  H   -7.517405   -0.454709    1.012443
  H    3.129876   -2.299866    1.537039
  C    5.560956    1.569754    0.347485
  H      5.8713    0.861759     1.12822
  H     5.31234    0.987717   -0.554761
  H    6.413436    2.211632    0.107211
