 60                                    
                                       
  C   -0.065505    3.632297   -1.686959
  C   -1.211364    3.066576    -1.14598
  C   -1.145609    1.774647   -0.601578
  C     0.02775    0.999826   -0.683684
  C    1.171234    1.609626   -1.198471
  C     1.13401    2.917522     -1.6747
  H    2.528432   -2.168199    1.656946
  H   -2.141256     3.62447   -1.174309
  C   -2.243883    1.031865    0.053637
 Co   -0.225674   -0.773549    0.013144
  C    0.886381    -2.58552    0.349071
  C   -0.485002   -2.888362       0.141
  C    -0.83171   -2.437377    -1.17459
  C    0.308649   -1.835041   -1.758437
  C    1.380131   -1.910152   -0.802249
  C    2.804076   -1.500977   -1.027978
  C     1.66899   -2.839599    1.600399
  C   -1.424948   -3.540855    1.110138
  C   -2.197742   -2.547468   -1.779709
  C    0.409156   -1.251429   -3.135166
  H    -2.36951   -2.990768     1.17504
  H   -1.654529   -4.569711    0.810957
  H    -2.97197    -2.41899   -1.018497
  H   -2.358198   -1.787899   -2.548975
  H   -2.335002   -3.531418   -2.241827
  H   -0.572852   -0.960119   -3.516483
  H    1.040289   -0.358897   -3.143235
  H      0.8388   -1.980479   -3.831314
  O    2.206374    0.381731    1.431001
  C     1.18751    0.376267    2.131656
  H    3.052767    1.916502    0.797326
  O    3.698305    2.494671    0.349311
  H    2.903954   -0.915999   -1.946502
  H    3.169226   -0.896844   -0.193499
  O    0.054793   -0.132369    1.788463
  H    2.118198    1.077981   -1.195791
  H    2.049143    3.379552   -2.032233
  C    1.192877    1.020299    3.506034
  H    2.216793    1.181446    3.843125
  O    -2.08712   -0.213765    0.198153
  H    0.644536    0.401333    4.218951
  H   -0.101995     4.63393   -2.103338
  H    2.028251   -3.874364    1.625471
  H   -0.991541   -3.571975    2.112659
  H    1.054158   -2.669346    2.488896
  H    3.442884   -2.385557   -1.131464
  H    0.682243    1.986393     3.44246
  N   -3.387416    1.581487    0.496091
  C   -3.555867    2.993583    0.811552
  H   -4.142677    3.515078    0.047634
  H   -4.085196    3.066308    1.765647
  H   -2.586902    3.477453     0.92334
  C   -4.416881    0.689225    1.016325
  H   -4.227498    0.443508    2.067242
  H   -5.383554    1.189479     0.92687
  H   -4.427291   -0.233122    0.438188
  C    4.769746    1.666346   -0.022218
  H    5.604767    2.307609   -0.319402
  H    5.105433    1.022348    0.802325
  H    4.524409    1.015757   -0.877703
