 67                                    
                                       
  C    -1.34302    3.406264    2.225893
  C   -0.060984    2.930848    1.992304
  C    0.114152    1.710303    1.332003
  C   -0.953747     0.91107    0.914199
  C   -2.230359    1.436159    1.155572
  C   -2.434581    2.660483    1.787939
  H   -4.131416      -2.618    1.550014
  H    0.806812     3.51225    2.301024
  N    1.469261    1.344863    1.067437
 Co   -0.671006   -0.789829    0.037517
  C   -2.178381   -2.011684    0.922853
  C   -1.699875   -2.677729   -0.247078
  C   -0.310934   -2.902752   -0.097978
  C    0.071843   -2.416024    1.198432
  C   -1.073742   -1.885121    1.831864
  C   -3.609069   -1.703608    1.245103
  C   -2.511114   -3.003631   -1.463875
  C    0.621947    -3.49752   -1.109957
  C    1.460156   -2.456129    1.763415
  C   -1.133133   -1.308088    3.213052
  H    0.109604   -3.657362   -2.061757
  H    1.474838   -2.835234   -1.296896
  H    1.009474   -4.464297     -0.7699
  H    2.193972    -2.65073    0.977203
  H     1.73089   -1.512436    2.250437
  H    1.552273   -3.250828    2.512065
  H   -0.145689   -0.972078    3.542469
  H   -1.806058   -0.447759    3.256873
  O   -3.351756     0.01342   -1.334933
  C   -2.327069    0.295423   -1.976832
  H   -4.147674    1.589389   -0.973064
  O    -4.57002    2.468191   -0.904631
  H   -3.482889   -2.510441   -1.424401
  H   -3.678936   -0.992066    2.072258
  O   -1.138448   -0.073238   -1.669148
  H   -1.484179    4.358774    2.726724
  H   -3.097656     0.87994    0.816056
  C   -2.453999    1.165576    -3.21223
  H   -3.206111    0.738616   -3.880674
  O    1.170695   -0.342082   -0.436249
  H   -1.502577    1.277452   -3.731165
  H   -4.119209   -1.272451    0.382096
  H   -2.005214    -2.66264   -2.372472
  H    2.179866    1.920323    1.500231
  C    1.900744    0.499216    0.121313
  H   -2.821765    2.144176   -2.884014
  H   -1.488778   -2.061153    3.925539
  H   -2.660931   -4.086137   -1.541993
  H   -3.446317    3.031609    1.915744
  C    3.342252    0.565699   -0.221759
  C    5.604117   -0.461926   -1.254224
  C     6.13964    0.755966   -0.518927
  C     3.96839    1.747497    -0.42991
  S    4.076866   -1.032994   -0.468823
  C    3.323975    3.105666    -0.49324
  H    2.240303    3.059939   -0.592993
  H    3.585143    3.703177    0.387922
  H    3.737295    3.624031   -1.362658
  O    5.290119    1.879005   -0.696629
  H    5.423393   -0.214277   -2.303446
  H    6.316337   -1.288006   -1.200624
  H     6.24749    0.540402    0.549868
  H    7.104504    1.068692   -0.923395
  C   -5.720108    2.413421   -1.711113
  H   -5.486176    2.171815   -2.758898
  H   -6.452741    1.676515   -1.351077
  H   -6.192718    3.399404   -1.689132
