 63                                    
                                       
  C    2.979151    0.903649   -1.411857
  C    1.857238    1.715955   -1.505594
  C    0.621041    1.242816    -1.04991
  C    0.469831   -0.055162    -0.53269
  C    1.609045    -0.85018   -0.441071
  C    2.847554    -0.37045   -0.863305
  H     0.12371   -2.923591    1.783208
  H    1.961441    2.717093   -1.913616
  C    -0.59086    2.077058   -0.986799
 Co   -1.290196   -0.427304     0.15291
  C   -2.539517   -2.005576    0.937917
  C   -3.286424   -1.252715    0.011258
  C   -2.584456   -1.293832   -1.249947
  C    -1.44946   -2.136135   -1.098521
  C    -1.37266   -2.516379    0.278772
  C   -2.845925   -2.234851     2.38482
  C   -4.637562   -0.643508    0.248094
  C   -3.030202   -0.640687   -2.523942
  C   -0.530351   -2.558166   -2.202939
  C   -0.367863   -3.416161    0.937003
  H   -0.859581   -4.316309    1.320196
  H   -1.985902   -1.980912    3.013372
  H   -3.709029    -1.65292    2.717141
  H    -3.07522   -3.292544    2.553458
  H   -4.715686   -0.161012    1.228001
  H   -4.891427    0.090895   -0.520204
  H    -5.40495   -1.423886    0.210813
  H   -3.530364    0.313766   -2.333869
  H   -2.182037   -0.444806   -3.185279
  O   -0.661039    0.047761    1.956545
  H    0.304558    0.280915    2.013025
  C   -1.407291     0.92843    2.795909
  H   -1.000723   -3.367007   -2.772371
  H      -3.552    1.635924    0.374597
  H   -3.887393    3.965899   -0.430306
  H    -2.00242     5.08754   -1.657559
  H    0.122381    3.845262   -1.986389
  H    0.403128   -3.742861     0.23594
  C   -2.947311     3.45745   -0.607619
  C   -1.896933    4.074483   -1.283276
  H   -3.733565   -1.284092   -3.062823
  C   -2.766235    2.157645   -0.160887
  C   -0.708717    3.382255   -1.467668
  H    3.949554    1.258883    -1.74115
  N   -1.626993    1.479115   -0.351923
  O    3.840682    1.596126    1.605633
  H    0.424382    -2.92614   -1.822961
  H   -0.317916   -1.737303   -2.892239
  C    2.540908    1.635169    1.846132
  O    1.914513    0.640804    2.176675
  C    1.958867    3.012813    1.716341
  H    2.141002    3.558525    2.647608
  H     2.44052    3.556664    0.903035
  H    0.882794    2.944044    1.547807
  H    4.140872       0.667    1.658763
  C    4.070152   -1.205833   -0.612071
  F    4.513433   -1.022477    0.661859
  F     3.82072   -2.510608    -0.73677
  F    5.080578   -0.887865   -1.419074
  H     1.56106   -1.845385   -0.007366
  H    -1.41802    1.947011     2.39423
  H   -2.429895    0.547744     2.84803
  H    -0.97297    0.927505    3.797936
