 67                                    
                                       
  C    3.074721    0.452002   -1.361493
  C    1.952635    1.204029    -1.67974
  C     0.70283     0.90909   -1.126848
  C    0.548068   -0.177167   -0.241961
  C    1.685932   -0.892313    0.113427
  C    2.952346   -0.603248    -0.44137
  H   -0.057553   -2.768653    2.354066
  H    2.074387    2.034511   -2.369399
  C   -0.509681    1.700119   -1.356081
 Co   -1.302638   -0.504197    0.226899
  C   -2.572901    -2.05543    1.049817
  C   -3.225185   -1.452759   -0.047856
  C   -2.375402   -1.622966   -1.201154
  C    -1.22988    -2.36039   -0.806723
  C   -1.316292    -2.57388    0.609183
  C   -3.058767   -2.140086    2.463658
  C   -4.613874   -0.882211   -0.048989
  C    -2.67186     -1.1571   -2.595003
  C   -0.156521   -2.845758   -1.732287
  C   -0.380528   -3.352979    1.485477
  H   -0.875403   -4.254742    1.861497
  H   -2.328118   -1.718329    3.162338
  H   -4.012316    -1.62424    2.599201
  H    -3.20899   -3.189252     2.74014
  H    -4.81604    -0.26615    0.833629
  H   -4.799452   -0.275347   -0.938471
  H   -5.350416   -1.692575   -0.053564
  H    -3.27721   -0.246173   -2.597604
  H   -1.750272   -0.944954   -3.144398
  O   -1.061794    0.345951    1.978953
  H   -0.270043    0.941369    1.945675
  C   -2.125258    1.142446    2.519317
  H   -0.528125   -3.702807   -2.303906
  H   -3.582895    1.491231   -0.194957
  H   -3.867192    3.562834   -1.545952
  H   -1.887802    4.424461   -2.834711
  H    0.507115   -3.676128     0.93764
  C   -2.910315    3.055945   -1.516807
  C   -1.806585    3.529627   -2.226172
  H    -3.22189   -1.925714   -3.148044
  H    4.037994    0.680859    -1.79207
  H    1.613213   -1.719977    0.817999
  N   -1.595483    1.237858   -0.690827
  O    2.649302    2.058068    1.377116
  H    0.734279   -3.161562   -1.186646
  H    0.150975   -2.071485   -2.440692
  C    1.682867    2.808008    1.881463
  O    0.525381     2.42828     1.97486
  C    2.162317    4.157579    2.321257
  H    2.934263    4.034142    3.085263
  H    2.620403    4.675622    1.475218
  H    1.329232    4.734985    2.716747
  H    2.275251    1.209508    1.061803
  C   -0.600702    2.852866   -2.141945
  H    0.270425     3.21101    -2.67758
  N    4.026559    -1.39449    -0.03735
  H    3.804666   -2.134508    0.616114
  C    5.361078   -1.292563   -0.417819
  O    5.764267   -0.451914   -1.189127
  C   -2.756306    1.903757   -0.764804
  H   -3.044689    0.558562    2.452049
  H   -1.909798    1.362856    3.566489
  H   -2.227004    2.076501    1.960996
  C    6.250534   -2.336472    0.221864
  H    6.193125   -2.285342    1.313355
  H    5.950849   -3.341408   -0.091174
  H    7.275852   -2.153318   -0.094964
