 63                                    
                                       
  C    2.742473   -2.250768   -1.547446
  C    2.571511   -0.871465   -1.707407
  C    1.460055   -0.268433   -1.073722
  C    0.523185   -1.048585   -0.357186
  C    0.767543   -2.408059    -0.17551
  C    1.878194   -3.012637   -0.769597
  H   -1.981797   -2.884692    1.817061
  C    3.600074   -0.143645   -2.537673
  C    1.168551    1.184355   -1.007196
 Co   -1.050761   -0.098097    0.205361
  C   -3.115604   -0.399134    0.797966
  C   -3.052106    0.657134   -0.133831
  C   -2.456799    0.133813   -1.339757
  C   -2.218116    -1.25386   -1.152944
  C    -2.55702   -1.574451    0.199649
  C   -3.653742   -0.355963    2.194627
  C   -3.626219     2.03295     0.03907
  C   -2.207267    0.899593   -2.604544
  C   -1.721874   -2.193874   -2.208402
  C   -2.528237   -2.917313    0.868183
  H   -3.547287   -3.253773     1.08694
  H   -2.923862   -0.740817    2.914928
  H   -3.941842    0.655016    2.492583
  H   -4.546135   -0.987264    2.265199
  H   -3.475789    2.425419    1.050415
  H   -3.195768    2.743534   -0.671088
  H   -4.706077    2.011343   -0.141973
  H   -1.965419    1.947325   -2.402039
  H    -1.37489    0.468775   -3.168256
  O   -0.420181   -0.076216    2.066842
  H    0.555149   -0.239859    2.074457
  C   -0.630938    1.093087    2.870114
  H   -1.236491    2.874464      0.4926
  H    0.061752    4.828906   -0.347244
  H    2.145699    4.369082   -1.681205
  H    2.839009    2.051525   -2.066252
  H   -2.065562   -3.675279    0.232932
  C      0.3943    3.818934   -0.554121
  C    1.545087    3.555567   -1.287236
  H   -3.092483    0.880404   -3.248886
  C   -0.329825    2.733981   -0.086872
  C    1.936318    2.241451   -1.509345
  H    3.591744   -2.728278   -2.026338
  H    0.083393   -3.015335    0.411595
  N    0.035713    1.467493   -0.310962
  O    3.580558   -1.207838    1.323506
  H   -1.367064   -3.132325   -1.779044
  H   -0.896707   -1.763075   -2.782543
  C    3.311709   -0.155235    2.080588
  O    2.178264    0.250823    2.281003
  C     4.54329    0.470101    2.662596
  H    5.028521   -0.249302    3.327835
  H    5.250863    0.705716    1.864366
  H    4.275442    1.367859    3.215984
  H    2.749275   -1.572336    0.955658
  H    3.142257    0.450255   -3.334236
  H     4.22035    0.519818   -1.924743
  H    4.270227   -0.863688   -3.010807
  H    2.062895   -4.074462   -0.636487
  H   -2.537092     -2.4232   -2.902877
  H   -1.674372    1.391515    2.754125
  H   -0.436824    0.848619    3.916149
  H    0.033036    1.900871    2.552343
