 62                                    
                                       
  C    2.722406    -2.16452   -1.694867
  C    2.586921    -0.77201   -1.514578
  C    1.396897   -0.302999   -0.923258
  C    0.342953   -1.143253   -0.495105
  C    0.547156   -2.506684   -0.643261
  C    1.724155   -3.010289   -1.251797
  H     -2.2811   -3.091674    1.150003
  C    3.607235    0.183744     -1.8669
  C    1.242484    1.097712   -0.678004
 Co   -1.165102   -0.097765    0.162086
  C   -3.244786   -0.374851    0.688499
  C   -3.090374    0.852232    0.004218
  C   -2.539366    0.553948   -1.295385
  C   -2.380056   -0.850624   -1.401793
  C   -2.759889   -1.428817   -0.142586
  C   -3.785776   -0.583651    2.069004
  C   -3.558715    2.195702    0.485025
  C   -2.230512    1.545975   -2.376169
  C   -1.935184    -1.58089   -2.631569
  C   -2.824623   -2.882307     0.22246
  H    -3.86539   -3.187895    0.373992
  H   -3.064592   -1.107437    2.705733
  H   -4.057224    0.360494    2.547309
  H   -4.688842   -1.201457     2.02077
  H   -3.267815    2.396542     1.52158
  H   -3.170922     3.00351   -0.140135
  H   -4.651302    2.251503    0.438378
  H   -1.992403    2.531319   -1.966691
  H   -1.377534    1.221976   -2.979114
  O    -0.57469   -0.357036    2.017813
  H    0.396641   -0.551762    2.018741
  C   -0.760775    0.706885    2.961629
  H     -2.7709   -1.652073   -3.335897
  H   -1.052137    3.003882    0.689126
  H    0.627683    4.766531    0.167696
  H    2.771751    4.116739   -0.939609
  H   -2.412808   -3.514406   -0.566633
  C    0.835825    3.734484   -0.088189
  C    2.020131     3.36987   -0.699165
  H   -3.089245    1.661125    -3.04577
  C   -0.114206    2.747269    0.205424
  C    2.254167    2.017648   -1.006436
  H   -0.202976   -3.220102   -0.310906
  N    0.077261    1.464749   -0.083559
  O    3.202259   -1.868969     1.37169
  H   -1.597009   -2.592485   -2.400958
  C    3.096897   -0.741954    2.058958
  O    2.032408   -0.176364    2.255071
  C    4.419677   -0.233594    2.544362
  H    4.968184   -1.037299    3.039876
  H    5.009469    0.086125    1.680206
  H    4.267586    0.604409    3.221619
  H    2.331753   -2.113222    0.995527
  H    1.841493   -4.083627   -1.367843
  C    3.452645    1.512178   -1.623609
  H    3.621464   -2.563646   -2.154667
  H   -1.111584   -1.065903    -3.13336
  H    -0.11768    1.556026    2.716334
  H   -1.809836    1.002763    2.924871
  H   -0.521059    0.342069    3.962132
  H    4.233162    2.218319   -1.890375
  H    4.518549   -0.182209   -2.331387
