 49                                    
                                       
  C    3.179943    2.913701   -0.014124
  C    3.294139    1.531298    0.081084
  C    2.150474    0.736492   -0.035409
  C    0.876004    1.306048   -0.216514
  C    0.792251    2.692105   -0.342667
  C    1.933635    3.492509   -0.243118
  H   -2.591994    2.263648   -1.638748
  H    4.274063    1.085374    0.224822
  C    2.178708    -0.73307   -0.077044
 Co   -0.537042    0.007135   -0.362397
  C   -2.663604   -0.340291   -0.324858
  C   -2.046714    -1.24874    0.553037
  C   -1.289209   -0.483181     1.51498
  C   -1.545641    0.898307    1.281752
  C   -2.321078    0.996567    0.088919
  C   -3.517856   -0.654496   -1.513879
  C   -2.226468   -2.736942    0.579261
  C   -0.473698   -1.048498    2.639029
  C    -1.08519    2.017636    2.162203
  C    -2.84258    2.238083   -0.572755
  H   -3.933558    2.283101   -0.491431
  H   -3.222283   -0.056937    -2.38173
  H   -3.465986   -1.711196   -1.786339
  H    -4.56499   -0.419013   -1.295394
  H   -2.374258   -3.159495   -0.419047
  H   -1.379014   -3.242222    1.049126
  H   -3.115547   -2.983496    1.169505
  H    0.019915    -1.98033    2.346347
  H    0.302394   -0.346064    2.954362
  O   -0.502202    0.294604   -2.347078
  H    0.139597     1.00257   -2.534537
  H   -0.264888   -0.456838   -2.913658
  H   -1.723423    2.054755    3.051662
  H    -0.09269    -2.99747   -0.821963
  H     1.84642     -4.5326   -0.550312
  H    4.065403    -3.54611     0.09879
  H    4.253671   -1.085534    0.370599
  H   -2.443192    3.141609   -0.107459
  C    1.968181   -3.466742   -0.399668
  C    3.196961   -2.911686   -0.045576
  H   -1.104959   -1.263674     3.50758
  C    0.886281   -2.615299   -0.552756
  C    3.304542   -1.537791    0.108766
  H    4.063431    3.536939    0.073032
  H   -0.170393    3.172295   -0.508355
  H    1.847791     4.57053   -0.339852
  N    0.979841   -1.288799   -0.381518
  H   -1.149472    2.984906    1.661706
  H   -0.051657    1.881316    2.489287
