 53                                    
                                       
  C   -3.716639    1.209308    0.106689
  C   -2.597638    2.031928    0.168672
  C   -1.315878    1.499361    0.026501
  C   -1.131794    0.110941   -0.154363
  C   -2.251118   -0.697059   -0.253825
  C   -3.547002   -0.161107   -0.122088
  H   -0.125088   -3.355527   -1.588921
  H   -2.746277    3.098812    0.310736
  C   -0.093529    2.299218   -0.061356
 Co    0.713078   -0.396369   -0.352247
  C    2.138615   -2.014391   -0.347683
  C    2.606868    -1.00276    0.508819
  C    1.585777   -0.760675    1.500988
  C    0.545018   -1.713199    1.306403
  C     0.83656   -2.430046    0.108433
  C    2.821061   -2.579474   -1.554703
  C    3.962548   -0.362913    0.488654
  C    1.665289    0.240246    2.614494
  C   -0.620142   -1.912716    2.224351
  C    0.040057   -3.534796   -0.521007
  H    0.570713   -4.488073   -0.427673
  H    2.137151   -2.630223   -2.407497
  H    3.692484   -1.988097   -1.844891
  H    3.164421   -3.598741    -1.34783
  H    4.368025   -0.271153   -0.523303
  H    3.952768     0.62756     0.95031
  H    4.662323    -0.97922    1.063226
  H    2.184306    1.150201    2.297909
  H    0.667602    0.528986    2.955617
  O    0.389978   -0.530036   -2.327122
  H   -0.569905   -0.442471   -2.468874
  H    0.815037    0.138743    -2.88785
  H   -0.286473   -2.475422    3.102977
  H    3.007034    1.569149   -0.903588
  H    3.289659    4.029131   -0.660775
  H    1.297687    5.392076    0.044841
  H   -0.876764    4.251097    0.399136
  H   -0.933829   -3.654672   -0.041911
  C    2.327323     3.56811   -0.474515
  C    1.215493    4.318274   -0.088789
  H     2.20737   -0.172823    3.471631
  C      2.1737    2.199448   -0.611354
  C    0.000575    3.683965    0.111264
  H   -4.703983    1.639578    0.218837
  H   -2.180987     -1.7715   -0.409423
  N    1.005153    1.575933   -0.396968
  H   -1.424759   -2.475671    1.749032
  H   -1.036859    -0.96231    2.566176
  O   -4.553332   -1.046309   -0.226374
  C   -5.883382   -0.570607   -0.094081
  H   -6.116264    0.163482   -0.872877
  H    -6.52473   -1.442485   -0.210328
  H   -6.043591   -0.125568    0.893714
