 50                                    
                                       
  C     3.42866   -2.749596   -0.289797
  C    2.174723   -3.022051    0.244847
  C    1.194914   -2.035951    0.189247
  C    1.409958   -0.772919   -0.342828
  C    2.678973   -0.538919   -0.891338
  C    3.679932   -1.509158   -0.872766
  H   -1.266901   -0.446299    2.698737
  H    1.940721   -3.982702    0.691543
  O   -0.038883    -2.40997    0.744817
 Co     0.02299    0.546095   -0.330375
  C    1.075011    1.608519    1.180459
  C    0.795566    2.448867    0.074634
  C    -0.64299    2.562132   -0.053436
  C   -1.231016    1.758536    0.938645
  C    -0.17336    1.089013    1.653254
  C    2.416097    1.294035    1.763836
  C   -0.352981    0.145795    2.805204
  C   -2.690061    1.577464    1.223994
  C   -1.325546    3.406632   -1.086277
  C    1.775843    3.188704   -0.785049
  H    0.485813    -0.55071    2.882365
  H    2.483342    0.251005    2.082326
  H    2.583153    1.931698     2.63875
  H    2.799517    2.849057   -0.612665
  H   -0.423472    0.697696    3.748511
  H    3.223788    1.476557    1.052641
  C   -1.193536   -2.059762    0.170982
  C   -3.466335   -2.652624   -0.293845
  C   -2.262797   -2.958898    0.303999
  O    0.206376    0.677854   -2.338961
  H    0.983641    0.135412    -2.57071
  H   -0.524515    0.337922   -2.880295
  H   -2.096693    -3.87618    0.855408
  C   -2.507104    -0.61537   -1.067704
  C   -3.593058   -1.456976   -1.016486
  H   -4.302899   -3.339045   -0.215623
  H   -2.566045    0.349015      -1.568
  H   -4.518818   -1.185113   -1.508392
  N   -1.321924   -0.896228   -0.474103
  H   -2.396091    3.195221   -1.144758
  H    1.741726    4.260712   -0.564252
  H   -2.934266     0.53406    1.446256
  H    -3.31825    1.905566    0.392322
  H    1.547231    3.063874   -1.848529
  H   -0.886672    3.252023   -2.077436
  H   -2.966573    2.171568    2.101463
  H   -1.212639     4.46835   -0.843058
  H    2.913568     0.44288    -1.30806
  H    4.203439   -3.507963   -0.257262
  H    4.655337   -1.293481   -1.296734
