 52                                    
                                       
  C   -4.056221    0.680754    0.075906
  C   -3.064327    1.648462    0.143772
  C   -1.723426    1.274724    0.008253
  C   -1.363689   -0.073176    -0.16656
  C   -2.383907   -1.017187   -0.266136
  C   -3.734844   -0.663464   -0.145113
  H    0.082082   -3.379813   -1.604873
  H   -3.345136    2.689033    0.280111
  C   -0.608733     2.22655   -0.068172
 Co    0.532166   -0.345448   -0.354227
  C    2.152794    -1.76773   -0.341077
  C    2.480248   -0.708959    0.523839
  C    1.427386   -0.603276    1.506409
  C    0.518945   -1.680496    1.298531
  C    0.911357   -2.349395    0.101814
  C      2.9131   -2.234888   -1.543602
  C    3.743515    0.098386    0.519529
  C    1.368035    0.394576    2.623954
  C    -0.61951   -2.031136    2.204648
  C    0.270672   -3.545362   -0.538662
  H    0.924924   -4.419252   -0.453533
  H    2.247675   -2.378425   -2.400545
  H    3.698192   -1.530858   -1.828824
  H    3.390547   -3.198181   -1.334461
  H    4.144601    0.244919   -0.487711
  H    3.603454    1.077637    0.984001
  H    4.510097   -0.426343    1.099795
  H    1.770281    1.364538    2.315718
  H    0.338515    0.552667    2.956013
  O    0.239566   -0.513712   -2.331231
  H   -0.721561   -0.485505    -2.48663
  H    0.634903     0.16371   -2.903019
  H   -0.225325   -2.549876    3.085228
  H    2.566419    1.898201   -0.878839
  H     2.52992      4.3736   -0.631216
  H    0.374228    5.470838    0.053053
  H   -1.641673     4.05953    0.383247
  H   -0.677647   -3.799601   -0.060644
  C    1.632087    3.793556   -0.455389
  C     0.43102    4.395546   -0.081525
  H    1.949994    0.049985     3.48518
  C    1.656197     2.41587    -0.59501
  C    -0.69577    3.609993    0.105286
  H   -5.098371    0.970372    0.177516
  H   -2.143384   -2.067693   -0.428075
  N    0.575008     1.64881   -0.392674
  H   -1.340092   -2.691329    1.719483
  H   -1.158751   -1.143568    2.544058
  C   -4.821209   -1.702751   -0.226837
  H   -4.437115   -2.654489   -0.601461
  H    -5.25808   -1.882357    0.761292
  H   -5.631089   -1.376187   -0.885326
