 51                                    
                                       
  C   -3.472127    2.002654    0.131157
  C   -2.217363     2.60199    0.164907
  C   -1.076908    1.809977    0.008882
  C   -1.162195    0.411409   -0.155756
  C   -2.427259   -0.156874    -0.22408
  C   -3.577262    0.628968   -0.077644
  H   -0.848791   -3.195269   -1.595854
  H    -2.14192    3.677346     0.29502
  C    0.288482    2.352991   -0.084433
 Co    0.542062   -0.458642   -0.348733
  C    1.617314   -2.324581   -0.329799
  C    2.267724   -1.423516    0.530985
  C    1.304787    -0.98213    1.512964
  C    0.098863   -1.713405    1.309598
  C    0.253833   -2.474466    0.114107
  C    2.186871   -3.016819   -1.529014
  C    3.722685   -1.062154      0.5242
  C    1.572734    -0.01866    2.630115
  C   -1.090621   -1.682142    2.217558
  C   -0.740851    -3.39823   -0.525021
  H   -0.414737   -4.438303    -0.42074
  H     1.51136   -2.941626    -2.38664
  H    3.158025   -2.606257    -1.81482
  H    2.326139   -4.081756   -1.314434
  H    4.149827   -1.059421   -0.483001
  H    3.902866   -0.086183    0.981897
  H    4.281082   -1.800045    1.110169
  H    2.253182    0.779157    2.316596
  H    0.648055    0.449714    2.977392
  O    0.213975   -0.552792   -2.326161
  H   -0.696625   -0.262314   -2.509684
  H     0.79471   -0.044029   -2.914174
  H   -0.879301   -2.300987    3.096396
  H    3.182899    1.010893   -0.895065
  H     3.94509    3.369347   -0.676368
  H      2.2616     5.10974   -0.003846
  H   -1.727241   -3.317023   -0.063701
  C    2.908963    3.111486   -0.493007
  C    1.969023    4.071919   -0.125376
  H    2.030045   -0.530663    3.483265
  C    2.488287    1.796512   -0.617047
  H    -4.36957    2.603633    0.252762
  H   -2.573106   -1.224523   -0.377178
  N    1.219607    1.420393   -0.404515
  H   -1.986417   -2.078646    1.736753
  H   -1.315898   -0.669827     2.56162
  C    0.649305    3.691566    0.072365
  H    -0.09979    4.425106    0.345873
  C   -4.912804   -0.030103   -0.133182
  O   -5.049876   -1.218015    -0.29606
  H   -5.786062    0.640626   -0.011969
