 56                                    
                                       
  C   -3.136102    1.630805    0.136568
  C   -1.934655    2.321584    0.177691
  C   -0.714918    1.655885    0.029399
  C    -0.68142    0.257786   -0.136963
  C   -1.887168   -0.423844   -0.211538
  C   -3.122506    0.242582   -0.075698
  H   -0.104232   -3.282325   -1.537931
  H    -1.96775    3.399327     0.31091
  C    0.582766    2.323956   -0.071713
 Co    1.101773    -0.44086   -0.347991
  C    2.340206   -2.205628   -0.355051
  C    2.932834   -1.246941    0.485792
  C    1.963503   -0.889273    1.494336
  C    0.820097   -1.720055     1.32351
  C    1.009998    -2.47337    0.126571
  C    2.935413   -2.847327   -1.570143
  C    4.351586   -0.764576    0.437688
  C     2.17106    0.103686    2.598407
  C   -0.343353   -1.780231    2.263254
  C    0.088548   -3.490488   -0.479818
  H    0.530296    -4.49043   -0.417974
  H    2.230037   -2.840206   -2.406888
  H    3.853532   -2.347257    -1.88698
  H    3.183056   -3.893079   -1.358501
  H    4.742827   -0.712143   -0.582652
  H    4.464527    0.217043    0.904202
  H    4.989324   -1.460375    0.993361
  H    2.789564    0.944057    2.269077
  H    1.217734    0.510161    2.946498
  O    0.748894   -0.531111   -2.319772
  H   -0.174333   -0.253337   -2.459194
  H    1.297819    0.025368   -2.895522
  H    -0.05658   -2.359037    3.147858
  H    3.590119    1.271625   -0.910332
  H    4.122852    3.691713   -0.695975
  H    2.281967    5.259873   -0.006169
  H   -0.870241   -3.525931    0.042054
  C    3.118835    3.333744   -0.503212
  C    2.090366    4.198475   -0.125906
  H    2.669877   -0.364016    3.453727
  C    2.826028    1.986457   -0.623737
  H   -4.077418    2.147807    0.248311
  H   -1.899636   -1.504646   -0.356356
  N    1.600451    1.488109   -0.400214
  H   -1.209485   -2.265106    1.810277
  H   -0.654364   -0.785633    2.591669
  C    0.817465    3.694047    0.083145
  H    0.002668    4.350849    0.363779
  N   -4.280637   -0.529104    -0.15496
  H   -4.138144   -1.521519   -0.290421
  C   -5.603821   -0.107927   -0.070042
  O    -5.91895    1.050025    0.085619
  C    -6.60413   -1.238082    -0.18274
  H   -6.454753   -1.807259   -1.105168
  H   -6.503844   -1.923806    0.664371
  H    -7.60533   -0.810436    -0.17962
