 55                                    
                                       
  C     3.19175    1.823816   -0.251381
  C    2.049468    2.610781   -0.198833
  C    0.798374    2.005376    -0.04568
  C    0.638583    0.614658    0.045809
  C    1.816417   -0.137389    0.047356
  C    3.069966    0.445461   -0.112408
  H    -2.42329   -3.074583    1.113067
  H     2.13323    3.692162   -0.272943
  N   -0.326162    2.875719    0.047779
 Co   -1.104224    -0.22783    0.010867
  C   -2.366707   -1.843458    -0.64152
  C   -1.000199   -1.999802   -1.096423
  C   -0.700645   -0.917004   -1.964645
  C    -1.80682   -0.015945   -1.920882
  C    -2.86399   -0.638075   -1.158042
  C   -4.206678   -0.019457   -0.920696
  C   -3.056602   -2.818904    0.258905
  C   -0.139013   -3.185977   -0.780992
  C    0.541452   -0.723963   -2.776724
  C   -1.922554    1.283216   -2.660115
  H   -4.835288   -0.652452   -0.292534
  H   -4.111732    0.953129   -0.426369
  H   -4.724965    0.133452   -1.872348
  H   -2.633267    1.954369   -2.166915
  H   -0.957576    1.794363    -2.72841
  H   -2.284787     1.11815   -3.680417
  H    0.835765    0.328197   -2.822512
  H    1.388957   -1.289399   -2.383596
  H    0.351849   -1.066871   -3.799768
  H    0.461283    0.728887    2.127718
  C   -0.545735   -0.669733    2.884555
  O    0.224357    0.383193    3.016098
  O    -1.88736    1.381959    0.769501
  H    0.883394   -3.051182   -1.141469
  O   -0.984766   -1.060217    1.798566
  H   -0.540971   -4.085424   -1.258857
  H    4.167387    2.277289   -0.384454
  H    1.759305   -1.221221    0.145025
  C   -0.837092   -1.377061     4.16645
  H    0.094165   -1.794385    4.559955
  H   -1.210656   -0.659051     4.90027
  H   -1.563761   -2.169697    4.000093
  H   -3.999163   -2.423464    0.641383
  H   -3.271982   -3.742948   -0.287781
  H   -0.147374    3.858258   -0.121591
  C   -1.542943    2.556394      0.5028
  H   -0.101321   -3.374021    0.296993
  C   -2.532403    3.665232    0.710341
  H   -2.113456    4.655326    0.526638
  H     -3.3858    3.504417    0.045391
  H   -2.901387    3.610877    1.737306
  C    4.266894   -0.463623   -0.172091
  F    4.132487   -1.346855   -1.175308
  F    4.388724   -1.173748    0.956519
  F    5.401192    0.210655   -0.364519
