 58                                    
                                       
  C    3.866313   -0.515594   -0.499955
  C    3.356954    0.734087    -0.17287
  C    1.965521    0.840546    0.027043
  C    1.095649   -0.244442   -0.117539
  C    1.681103   -1.485914   -0.405918
  C    3.050467   -1.648054    -0.60523
  H   -3.408715   -1.935018    0.859835
  C    4.271389    1.924705   -0.023131
  N    1.472962    2.119736    0.431609
 Co   -0.822946   -0.038892     0.01786
  C   -2.804917   -0.550715   -0.662858
  C   -1.775265   -1.272051    -1.38177
  C    -0.98598   -0.324777   -2.084905
  C   -1.419689    0.974635   -1.683476
  C   -2.597228    0.821724   -0.862627
  C   -3.369155    1.963713   -0.277736
  C   -3.856993   -1.217329    0.166562
  C   -1.685541    -2.76741   -1.440553
  C    0.112156   -0.604693   -3.061438
  C   -0.853821    2.280403   -2.155205
  H   -4.219144    1.614312    0.310491
  H   -2.737327    2.572204    0.378092
  H   -3.752147     2.60882    -1.07445
  H    -1.06312    3.082007   -1.439223
  H    0.229713    2.219319   -2.294648
  H   -1.298191    2.574108    -3.11224
  H    0.944055    0.095398   -2.946682
  H    0.510605   -1.614653   -2.948677
  H   -0.280829   -0.505225   -4.079161
  H    1.156798   -0.569173    1.923104
  C   -0.396296    -1.38083    2.615458
  O     0.82745   -0.940213    2.773153
  O   -0.577569    1.488346    1.189471
  H   -0.771682   -3.097782   -1.939333
  O   -1.050422   -1.227738    1.579425
  H   -2.533846   -3.178884   -1.997518
  H     1.03897   -2.362781   -0.494209
  C   -0.941116   -2.105481    3.802466
  H   -0.328101    -2.99021     3.99407
  H   -0.869468   -1.460235    4.681581
  H    -1.97549   -2.392128    3.623906
  H   -4.431524   -0.496128    0.750399
  H   -4.552571   -1.763858   -0.478854
  H     2.12213    2.893836    0.371481
  C    0.309677    2.362696     1.03694
  H   -1.705371   -3.204985   -0.437068
  C    0.060102      3.7445    1.567428
  H    0.925705    4.401919    1.475571
  H   -0.785043    4.183191    1.029002
  H   -0.226322    3.664501    2.618683
  H    4.937593   -0.616533   -0.658618
  H    4.021732    2.727753   -0.728092
  H    4.239478     2.33857    0.991861
  H    5.305375    1.638642   -0.222183
  C    3.648486   -2.990167   -0.935444
  H     2.88524   -3.771568    -0.95426
  H    4.136893   -2.969818    -1.91476
  H    4.406864   -3.274136   -0.199447
