 61                                    
                                       
  C   -0.319204    4.301842   -0.533666
  C   -1.289054    3.332946   -0.742974
  C   -0.985076     1.98786   -0.503292
  C    0.284969    1.568495   -0.088935
  C    1.222233    2.584807    0.154286
  C     0.93897    3.930044   -0.060574
  H    2.860165   -2.202666    1.755527
  H   -2.284392    3.619297    -1.07515
  N   -2.062571    1.062163   -0.643521
 Co    0.734948   -0.310551    0.024387
  C    2.168849   -1.890255   -0.253791
  C     2.71196   -0.599069   -0.610213
  C     1.95913   -0.097379   -1.704819
  C    0.867928   -0.993408    -1.92494
  C    1.053669   -2.138807   -1.066957
  C    0.170548   -3.347362   -1.004543
  C     2.71234   -2.766753    0.830042
  C    3.934661    -0.00097    0.018353
  C    2.231679    1.142244   -2.497193
  C   -0.204289   -0.826195   -2.959821
  H   -0.112673   -3.589718     0.02408
  H   -0.744962   -3.199992    -1.58017
  H    0.690378   -4.214745   -1.423835
  H   -1.143885   -1.286044   -2.637393
  H   -0.399399    0.231704   -3.157558
  H    0.086516   -1.296794   -3.904791
  H    1.313363    1.686239   -2.733526
  H    2.895043    1.827258   -1.966207
  H    2.715911    0.863325   -3.439387
  H   -0.412224    1.435247    1.849346
  C    0.488212    0.174797    2.919253
  O   -0.396164     1.13314    2.786055
  O   -1.125487   -0.742123     0.36728
  H    4.103823    1.023797   -0.319362
  O    1.092342   -0.333013    1.969658
  H    4.822508   -0.586005   -0.243428
  H    2.214336    2.309759    0.510257
  C    0.719396   -0.250008    4.332239
  H    1.121558    0.594565    4.898236
  H   -0.236038   -0.523699    4.786736
  H    1.410841   -1.089648    4.362544
  H    2.042613   -3.603354    1.040797
  H     3.68179   -3.177722    0.528905
  H   -2.923942    1.442362   -1.015323
  C   -2.128917    -0.16582   -0.121118
  H    3.854355    0.007138    1.110273
  H    1.694225    4.685284    0.130857
  H   -0.552231    5.344885   -0.718819
  C   -3.484037   -0.858043   -0.029559
  C   -3.853714   -0.847075    1.467069
  C   -4.576032   -0.151974   -0.839537
  C   -3.334287   -2.305793   -0.513319
  H   -3.103784   -1.382356    2.054972
  H   -3.936345    0.175758    1.849578
  H   -4.820239   -1.340921    1.602553
  H   -4.316072   -0.076897   -1.901733
  H   -5.498671   -0.733986   -0.772621
  H   -4.808004    0.845772   -0.448653
  H   -4.278847   -2.836084   -0.362824
  H   -3.094607   -2.346607   -1.581844
  H    -2.55184   -2.824197    0.044283
