 59                                    
                                       
  C    0.620133    4.282146   -0.602114
  C   -0.458727    3.428547   -0.404549
  C   -0.222806    2.059076   -0.254766
  C    1.073519    1.503264   -0.304267
  C    2.136708    2.392866   -0.487396
  C    1.915191    3.764503   -0.636953
  H    2.630536   -2.722387    1.735411
  H   -1.459458    3.850128   -0.341812
  C   -1.254171    1.035064    0.025875
 Co    1.041775   -0.423942   -0.040123
  C    2.729437   -1.389497   -0.796704
  C    2.044605   -0.768639   -1.877849
  C    0.711517    -1.27333   -1.887748
  C    0.625409   -2.335089   -0.911886
  C    1.857314    -2.40212   -0.241902
  C    2.241217    -3.30004    0.892038
  C    4.147306    -1.16292   -0.366029
  C    2.600351    0.228794   -2.843722
  C   -0.397085   -0.853416   -2.804017
  C   -0.618069    -3.12581    -0.64632
  H   -1.469137   -2.463145   -0.457713
  H   -0.860649   -3.746526   -1.514745
  H   -1.370006   -0.972042   -2.316794
  H   -0.290242    0.193501   -3.103316
  H   -0.403199   -1.462392   -3.714123
  H    1.876327    1.009352   -3.089185
  H    3.502948    0.709834    -2.46218
  H    2.867721     -0.2895    -3.77106
  H    4.239185   -1.209666    0.723059
  O    1.427813    1.674801    2.674918
  C    1.557979    0.378024    2.813897
  H    1.347358    1.910247    1.724384
  O   -0.849864   -0.118287    0.341727
  H      1.3934   -3.888007    1.247374
  O    1.524466   -0.422096    1.875946
  H    0.455459    5.348473   -0.711379
  H     3.15948    2.021828    -0.51112
  H    2.757559    4.435448   -0.775075
  C    1.762736   -0.060505    4.227628
  H    2.662718    0.415466    4.625353
  H    0.918286    0.278916    4.833092
  H    1.851262   -1.143991    4.274169
  H    4.806521   -1.929226   -0.787417
  H     3.02445   -3.993875    0.569776
  H   -0.501248   -3.783734    0.216582
  H    4.519138    -0.18915    -0.69446
  N   -2.552877    1.324781    -0.05512
  H   -2.784739    2.254706   -0.381686
  C   -3.662136    0.444865    0.103928
  C   -4.840147    0.792895   -0.558631
  C   -3.607109   -0.698184    0.902949
  C   -5.966491   -0.009943    -0.43303
  H   -4.872939    1.686731   -1.176668
  C    -4.74285   -1.496102    1.012693
  H   -2.699957   -0.954086    1.433079
  C   -5.919794   -1.161082    0.349673
  H   -6.879342    0.265045   -0.950429
  H   -4.704496   -2.384825    1.634005
  H   -6.798271   -1.789713    0.446526
