 62                                    
                                       
  C   -1.508922    3.478035   -1.326644
  C   -2.055347    2.268098   -0.908938
  C   -1.217573    1.272477    -0.39437
  C    0.188537    1.419111     -0.4054
  C    0.701316    2.660185   -0.794973
  C   -0.136854    3.689977   -1.231555
  H    3.708872   -1.053559    2.011896
  H    -3.12165    2.108611   -1.025191
  C   -1.631503   -0.071782    0.099096
 Co     1.09549   -0.262957   -0.026285
  C    3.110728   -0.180632   -0.567357
  C    2.328343   -0.146018    -1.76174
  C    1.511226   -1.306666   -1.775826
  C     1.88801   -2.138477   -0.658001
  C    2.874699   -1.453118    0.071616
  C    3.529241   -1.898308    1.341984
  C    4.125576    0.829923   -0.120846
  C     2.35902    0.892394   -2.838996
  C    0.481157   -1.660323     -2.8033
  C    1.257226   -3.459442   -0.342837
  H    0.168342   -3.365132   -0.283495
  H    1.490829   -4.187305   -1.126333
  H   -0.354246    -2.19734   -2.345685
  H    0.084019   -0.766767   -3.292084
  H    0.913502   -2.303647    -3.57711
  H    1.355047    1.189218   -3.152383
  H    2.897411    1.789739   -2.529635
  H    2.877714    0.479772    -3.71107
  H     4.09272    0.979827    0.962794
  H    0.697008    2.197016      1.4639
  C    1.145771    0.881759    2.748487
  O    0.878576    2.123909    2.429065
  O    -0.70864   -0.945596    0.142564
  H    2.917937   -2.627127    1.877911
  O    1.200906   -0.042249    1.933826
  H   -2.155862    4.252558   -1.724257
  H    1.776142    2.831781   -0.785513
  H    0.286794    4.643232   -1.532795
  C    1.384038    0.666665    4.208265
  H    2.183248     1.33153    4.545381
  H    0.480518    0.935505    4.761993
  H    1.645476   -0.373238    4.393565
  H    5.138663    0.501556   -0.375594
  H    4.497207   -2.360059    1.120769
  H    1.616077   -3.860742    0.606593
  H    3.964668    1.800421    -0.59641
  C   -3.225129   -1.814762    0.693924
  C   -3.956686    0.512715    0.820382
  C    -4.41124   -2.153028   -0.213054
  H    -3.49353   -1.945445    1.749766
  H   -2.356109   -2.433607    0.480672
  C   -5.149683    0.261998   -0.098695
  H   -4.242869    0.282118     1.85521
  H   -3.601049    1.539897    0.811785
  C   -5.588728   -1.201771    0.020119
  H   -4.711757   -3.189341   -0.031322
  H   -4.079838   -2.087701   -1.256693
  H    -5.96744    0.935617    0.174502
  H   -4.865553    0.487148    -1.13479
  H    -6.39384   -1.416491   -0.687741
  H   -5.995751   -1.369649    1.025942
  N    -2.85957   -0.404447    0.489063
