 56                                    
                                       
  C   -2.205947    3.490106   -0.912258
  C   -2.785051    2.323018   -0.433039
  C   -1.988663    1.210051   -0.137865
  C   -0.595374    1.226404   -0.320453
  C   -0.058464    2.424256   -0.804533
  C    -0.83073    3.545748   -1.097871
  H    3.953929   -0.388719    0.775017
  H   -3.857719    2.292892   -0.279852
  N   -2.651768    0.052025    0.371058
 Co     0.53503   -0.293184      0.0778
  C    2.386663   -1.334826   -0.366579
  C    2.122629   -0.287674   -1.325637
  C    0.902188   -0.613362   -1.996606
  C    0.370661   -1.776113   -1.383044
  C     1.31929   -2.247739   -0.403364
  C    1.124684   -3.464258    0.447865
  C    3.578359   -1.389545    0.541603
  C     3.11814    0.737763   -1.799033
  C    0.307892    0.120784   -3.156302
  C   -0.923616   -2.449933   -1.726519
  H    1.961779   -3.611737    1.132598
  H    0.209175   -3.384418    1.043076
  H    1.045866   -4.356449   -0.181047
  H   -1.288314    -3.04358   -0.882784
  H   -1.694985   -1.721221   -1.995676
  H   -0.794048   -3.127513   -2.576854
  H   -0.784381    0.102883   -3.127241
  H    0.621801    1.166314   -3.179352
  H    0.632287   -0.353948   -4.089069
  H    2.390162    1.703979    0.208703
  C    1.996895     1.38865    2.020455
  O    2.666505    2.033984    1.085237
  O   -0.823029   -1.101755    1.170835
  H    2.645256    1.672333   -2.117418
  O    1.194974    0.492687    1.765928
  H    3.655748    0.348019   -2.669973
  H   -2.831223    4.347741   -1.135547
  H    1.010443    2.502238   -0.994909
  H   -0.360908    4.448632   -1.474079
  C    2.298471    1.842297     3.40868
  H    3.377982    1.818754    3.575283
  H    1.969891    2.879786    3.518453
  H    1.782665    1.206941    4.125457
  H    3.342466   -1.888738    1.484069
  H    4.395283   -1.939045    0.062318
  C   -2.054057   -0.944677    1.030376
  H    3.877389    0.966939   -1.044901
  C   -3.082928   -1.870361    1.624536
  C   -4.120253   -0.064901    0.422378
  C   -4.344707   -1.526414     0.82831
  H   -3.180745   -1.623646    2.688667
  H   -2.759359   -2.910327    1.552424
  H   -5.264959   -1.656192    1.397873
  H   -4.403819   -2.152284   -0.066177
  H   -4.514917    0.638618    1.164046
  H   -4.544254    0.178585   -0.553701
