 63                                    
                                       
  C    2.049301    3.913801    0.051379
  C    0.731519    3.503577   -0.077408
  C    0.421658    2.142302   -0.095925
  C    1.413896    1.158774   -0.013007
  C    2.725376    1.594266    0.152325
  C    3.054727    2.952475    0.182087
  H    2.320407   -3.527351    1.035084
  H   -0.056599    4.250229   -0.146182
  N   -0.962374    1.798609   -0.176418
 Co    0.981843   -0.712227   -0.100335
  C    1.439769   -2.711303   -0.742803
  C    2.438192   -1.755333    -1.17726
  C    1.811923    -0.83251   -2.053712
  C    0.412993   -1.121602   -2.048374
  C    0.205401   -2.332805   -1.291703
  C   -1.131633   -2.974136   -1.084682
  C    1.735229   -3.858829    0.172118
  C    3.889317   -1.832332   -0.810826
  C    2.467932    0.264786   -2.830686
  C   -0.641472   -0.399086   -2.831575
  H   -1.072957   -3.808538   -0.383616
  H   -1.858652   -2.258125   -0.685863
  H   -1.515863   -3.357176   -2.035699
  H   -1.627307   -0.519726     -2.3685
  H   -0.418497    0.670592   -2.903801
  H   -0.707344   -0.794272   -3.851095
  H    1.844158    1.161874   -2.866765
  H     3.42968    0.548961   -2.399662
  H     2.64051   -0.074106   -3.858054
  H   -0.135408   -0.014516    2.292833
  C     1.58889   -0.594964    2.774739
  O    0.460667   -0.009972    3.079904
  O   -0.773958   -0.299339    0.664982
  H    4.440313   -0.956371   -1.160061
  O    1.843323   -1.032237    1.646338
  H    4.350287   -2.717141   -1.262145
  H    2.291877    4.972575    0.065466
  H    3.541975    0.880792    0.246921
  C    2.574309   -0.674138    3.893081
  H    3.071549    0.298515    3.971713
  H    2.064776   -0.872424    4.836533
  H    3.319997   -1.437977     3.67873
  H    4.017006   -1.905756    0.273988
  H    2.320742   -4.619405   -0.355032
  H   -1.599243    2.557483   -0.383784
  C   -1.504178    0.643851    0.203555
  H    0.822278   -4.330288    0.540543
  O    4.362164     3.26802    0.330697
  H    4.477514    4.229436    0.333196
  C   -2.956703    0.459203    0.206313
  C   -3.810869    1.123182   -0.623013
  C   -5.199742   -0.882415    0.922774
  H   -5.720358   -1.334258    1.769641
  C   -5.744579    0.504975    0.640317
  H   -6.811756    0.475895    0.417017
  C   -3.449445    1.974781   -1.808985
  H   -3.522529    3.041353   -1.563322
  H   -2.459252    1.754721   -2.206774
  H   -4.192847    1.782717   -2.586476
  O   -5.146629    1.055222   -0.531675
  S   -3.451816   -0.785321    1.387048
  H   -5.328752   -1.521637    0.045949
  H   -5.565198    1.176259     1.48608
