 57                                    
                                       
  C   -2.680091   -2.100559     2.03102
  C    -2.49362   -0.723248    1.975585
  C   -1.434959   -0.199559    1.226894
  C   -0.528818   -1.037122    0.548035
  C   -0.762704   -2.413409    0.583054
  C   -1.828677   -2.944597    1.318987
  H    1.721208   -2.827373   -1.892218
  H    -3.18376   -0.070401    2.502278
  C   -1.224547    1.239346    0.997715
 Co     0.91638   -0.081465   -0.297188
  C    2.895025    -0.24194   -1.118608
  C    2.875878     0.82645   -0.201739
  C    2.455347    0.298579    1.072986
  C    2.313556    -1.11107     0.94397
  C     2.50321   -1.442896   -0.431552
  C    3.228502   -0.178439   -2.577837
  C    3.317649    2.236218   -0.455949
  C      2.2945    1.086875    2.338234
  C    2.031998   -2.051532     2.07439
  C    2.444025   -2.800008   -1.069498
  H    3.422383   -3.076087   -1.475742
  H    2.601905   -0.862872   -3.158936
  H    3.117618    0.831806    -2.98244
  H    4.268558   -0.481125   -2.740515
  H     3.11621    2.558987   -1.482108
  H    2.840143    2.941854    0.228649
  H    4.398671    2.315239   -0.298762
  H    1.917056    2.094155     2.13693
  H    1.592351    0.598965    3.019695
  O    0.065139   -0.328894   -2.056861
  H   -0.915319   -0.140204   -1.999986
  H    0.410691    0.193353   -2.797181
  H    2.949967   -2.200779    2.652909
  H    0.848777    2.908717   -0.934969
  H   -0.497243    4.839665   -0.123659
  H   -2.352152    4.395173    1.511797
  H   -2.819407    2.052935    2.191808
  H    2.162708   -3.569056   -0.347034
  C   -0.718132    3.836562    0.220558
  C   -1.749078    3.581545    1.122041
  H    3.252502    1.187075    2.859089
  C    0.033513    2.764319   -0.233659
  C    -2.00985    2.274237    1.506347
  H    -3.50101   -2.513715    2.606909
  H   -0.107554   -3.092174    0.041028
  H   -1.992592   -4.017787    1.335928
  N    -0.19689    1.505319    0.157381
  O   -3.487113   -1.443282    -1.02679
  H    1.694507   -3.026617    1.719691
  H    1.264787   -1.661032    2.747982
  C   -3.485137    -0.28827   -1.670174
  O   -2.467472    0.347618   -1.909315
  C    -4.85784    0.155085   -2.073569
  H    -5.30322   -0.601932   -2.724371
  H    -5.49082    0.236177   -1.186535
  H   -4.800253    1.110473   -2.590975
  H   -2.583657   -1.664049   -0.716527
