 56                                    
                                       
  C    2.643819    -2.35241   -1.781374
  C    2.522778   -0.967638   -1.805464
  C    1.452853   -0.372129   -1.132565
  C    0.473668   -1.118747   -0.454513
  C    0.644897   -2.503923   -0.407511
  C    1.719831   -3.115313   -1.065705
  H   -1.923196   -2.628869    2.021111
  H    3.249194   -0.343662   -2.317383
  C    1.332466    1.080114   -0.978131
 Co    -0.94404   -0.032773    0.282915
  C   -2.941268   -0.037247    1.063665
  C   -2.841871    0.969607    0.084221
  C   -2.426525    0.340675   -1.146255
  C   -2.363487   -1.063305    -0.92727
  C   -2.600167   -1.297844     0.46146
  C   -3.301303      0.1366    2.507532
  C   -3.196716     2.41697    0.247851
  C   -2.197388    1.034149   -2.455707
  C   -2.107828   -2.085639   -1.990485
  C   -2.627016   -2.614101    1.181809
  H   -3.626909   -2.812466    1.580854
  H   -2.742946    -0.55804    3.143481
  H   -3.123771    1.157832     2.85743
  H   -4.364839   -0.077366    2.658838
  H   -2.979237    2.788988    1.254038
  H   -2.674978    3.048222   -0.476146
  H   -4.269867    2.554827    0.078171
  H   -1.807958    2.046263     -2.3114
  H   -1.479192    0.486244   -3.071839
  O   -0.138342   -0.204843    2.074948
  H    0.844309   -0.016515    2.029862
  H    -0.50415    0.339459     2.78917
  H   -3.020434   -2.224087   -2.580116
  H   -0.684227    3.054646    0.691327
  H    0.979223     4.74858   -0.160368
  H    2.850889    3.872353   -1.617001
  H   -2.372924   -3.439779    0.513961
  C    1.068577    3.697206   -0.401744
  C     2.10273    3.205442   -1.195998
  H   -3.131434     1.11454   -3.021482
  C    0.155351    2.767108    0.065783
  H    3.467039   -2.836774   -2.295161
  H   -0.063027   -3.127235     0.13469
  H    1.833377   -4.194416   -1.020236
  N    0.268372    1.469433    -0.23264
  O    3.341536   -1.474298    1.252183
  H   -1.828521   -3.052259   -1.568728
  H   -1.308054   -1.776737   -2.668412
  C    3.385424    -0.21362    1.645032
  O    2.385239    0.465712    1.843385
  C    4.781765    0.304404    1.791672
  H    5.404181   -0.431595    2.303622
  H    5.199159    0.454959    0.791015
  H    4.771608    1.249454    2.331144
  H    2.422446   -1.734407    1.032763
  N    2.243388    1.911707   -1.473626
