 58                                    
                                       
  C    2.246296    3.172928    1.325236
  C     2.09778    1.929085    1.928055
  C    1.199541    1.020198    1.374492
  C     0.41421    1.299834    0.264895
  C    0.609998    2.549784   -0.340533
  C    1.513008    3.481296    0.177996
  H   -1.537038   -1.380675    2.752657
  H    2.672954    1.646912    2.803605
  O    1.131167    -0.21478    2.033978
 Co   -0.905325    0.044403   -0.323938
  C   -2.402477    1.218595     0.63955
  C   -2.683298     1.06722   -0.743504
  C   -2.895206   -0.339968   -1.002339
  C   -2.690203   -1.042754    0.198361
  C   -2.309037   -0.089053     1.20925
  C   -2.209134     2.50202    1.384485
  C   -2.028569   -0.408627    2.647361
  C   -2.814355   -2.518594    0.421227
  C    -3.26351   -0.907222   -2.340349
  C   -2.826741    2.151529   -1.769713
  H   -1.379226    0.342236    3.103701
  H   -1.428217    2.413054    2.143995
  O     2.40887   -0.489801   -1.927582
  C    3.456852    -0.00131   -1.527457
  H   -3.144361    2.773153    1.886021
  H   -2.544041    3.124303   -1.362287
  H   -2.960653   -0.445377    3.221179
  O     3.53701    1.183323   -0.948076
  H   -1.929644    3.320415    0.718414
  O   -0.132401    0.136991   -2.142833
  H   -0.470248   -0.440579   -2.843639
  H     0.85817    0.013553   -2.100372
  C    4.787109    -0.68059   -1.646536
  H    5.440999   -0.076315   -2.281102
  H    5.256388   -0.745382   -0.662129
  H    4.659067   -1.671224   -2.078046
  H    2.648003    1.589663   -0.869048
  C    1.045137   -1.353895    1.329649
  C    1.727628   -2.465969    1.838353
  C    1.680886   -3.651014    1.132307
  H    2.283589   -2.352036    2.760832
  C    0.302915   -2.573375   -0.483912
  C      0.9655      -3.707   -0.070144
  H    2.207803   -4.525022    1.500769
  H   -0.287465   -2.567041   -1.395506
  H    0.918536   -4.612411   -0.662394
  N    0.317369   -1.415419    0.211663
  H   -2.940747   -1.946521   -2.453272
  H   -3.864333     2.22323   -2.111405
  H   -2.024951   -2.896983    1.077976
  H   -2.776866   -3.080404   -0.515806
  H   -2.197477    1.960921   -2.645614
  H   -2.835069   -0.316236   -3.156794
  H   -3.773648   -2.741128    0.900365
  H   -4.350051   -0.887962   -2.476233
  H     0.03246    2.806387   -1.227555
  H    2.945376    3.891739    1.738601
  H    1.639731    4.444208   -0.306511
