 59                                    
                                       
  C    3.184731   -0.925148   -1.682677
  C    2.524806    0.296028   -1.779769
  C    1.298972    0.466993   -1.130132
  C    0.698273   -0.575049   -0.390921
  C    1.398031   -1.771441   -0.274191
  C    2.630635   -1.952063   -0.919532
  H   -0.850102   -2.792196    2.208041
  H     2.97568    1.102449   -2.350431
  C    0.568578    1.745839   -1.079429
 Co   -1.042134   -0.132848    0.308187
  C   -2.858053   -0.930599    1.126562
  C   -3.187379   -0.035451    0.090436
  C   -2.538787   -0.502668   -1.110309
  C   -1.893477   -1.735829   -0.814592
  C   -2.015902   -1.965202    0.589446
  C   -3.265811   -0.839366    2.565207
  C   -4.131248    1.126287    0.173999
  C   -2.620118    0.149195   -2.458104
  C   -1.230135   -2.622435    -1.82264
  C    -1.48931   -3.125286    1.383175
  H   -2.315358   -3.700867    1.812925
  H   -2.469354   -1.194126    3.227307
  H   -3.538954    0.180187    2.853103
  H   -4.139765   -1.473459    2.749442
  H   -4.106802    1.615749    1.152653
  H   -3.922697    1.875739   -0.593792
  H    -5.15686    0.777164    0.013444
  H   -2.624493    1.240517   -2.375324
  H   -1.770518    -0.13377   -3.085115
  O   -0.261888    0.149617    2.096541
  H     0.57453    0.694602    2.042668
  H   -0.824737    0.551789    2.775917
  H   -2.000306   -3.164649   -2.381684
  H   -2.117201    2.717824     0.55012
  H   -1.497068     4.91674   -0.438605
  H    0.522185    5.027103    -1.92909
  H   -0.905553   -3.807129    0.761345
  C   -0.900718    4.036738   -0.647338
  C    0.223078    4.091739   -1.467504
  H   -3.535382   -0.149665   -2.979696
  C   -1.250002    2.813732   -0.094716
  H    4.137362   -1.075085   -2.183815
  H    1.012542   -2.605851    0.307929
  N   -0.549921    1.695715   -0.318074
  O    3.463277     0.21099    1.351207
  H   -0.574824   -3.358424    -1.35371
  H   -0.631733   -2.051359   -2.537249
  C    3.047632    1.390185    1.784576
  O    1.865396    1.682881    1.902116
  C    4.174428    2.319715    2.113769
  H    4.791796    1.871672    2.896896
  H    4.808609    2.451988    1.233801
  H    3.778296    3.276347    2.448002
  H    2.697895   -0.340101    1.085457
  C    0.968095    2.939789   -1.678255
  H    1.855959     2.96501   -2.298931
  C    3.328629   -3.263395   -0.791301
  O    2.873759    -4.18732   -0.162735
  H    4.299863   -3.344491    -1.31771
