 60                                    
                                       
  C    2.532108   -2.066277   -2.112853
  C    2.475264   -0.702779     -1.8333
  C    1.404059   -0.178688   -1.095868
  C    0.373684   -1.033725   -0.645375
  C    0.472228   -2.400591   -0.901349
  C    1.542619   -2.921158   -1.637803
  H   -2.307443   -3.030763    1.201298
  H    3.288681   -0.079931   -2.176303
  C    1.280818    1.217068   -0.608223
 Co   -1.039977   -0.143356    0.289798
  C   -3.100988   -0.215787    0.901481
  C   -2.877969    1.004185    0.236004
  C   -2.380759     0.69664   -1.081859
  C   -2.406335   -0.717687   -1.246589
  C   -2.771876    -1.29337    0.005652
  C   -3.577845   -0.407477    2.309084
  C   -3.191534    2.378487    0.745433
  C   -1.998707    1.700875   -2.128079
  C   -2.109215   -1.439961   -2.523885
  C   -2.924652   -2.748143    0.341433
  H   -3.966053    -2.97814    0.588614
  H   -3.109618   -1.282394    2.771928
  H   -3.382409    0.468884    2.934063
  H   -4.659301   -0.580981    2.322037
  H   -3.106939    2.449262    1.834111
  H   -2.542988     3.13683    0.299125
  H   -4.222685    2.638776    0.483417
  H   -1.526248    2.581784   -1.681236
  H    -1.29258    1.272795   -2.844962
  O    -0.38712    -0.88019     1.99734
  H    0.602791   -0.753612    2.064276
  H   -0.775052   -0.529293    2.813739
  H   -2.980284   -1.373583    -3.18454
  H   -0.738298    2.486467    1.677385
  H    0.710076    4.499947    1.331711
  H    2.478667     4.37602   -0.429592
  H   -2.641409   -3.384115   -0.499963
  C    0.873741     3.59402    0.760707
  C    1.861211    3.509292   -0.210748
  H   -2.878259    2.039881   -2.685265
  C    0.075942    2.480467    0.960024
  C     2.09236    2.326576   -0.915409
  H      3.3679      -2.461   -2.680381
  H   -0.295206    -3.07803   -0.532281
  N    0.259129     1.34837    0.277977
  O    3.138607   -2.052202    1.039983
  H   -1.893467   -2.496166   -2.354648
  H   -1.251966   -1.007468   -3.046245
  C    3.168067   -1.046126    1.897249
  O    2.183379   -0.380804    2.187994
  C     4.53133   -0.811394    2.471933
  H    4.862469   -1.714598    2.991181
  H    5.241192   -0.621265    1.663235
  H    4.501955    0.030072    3.161035
  H    2.250166   -2.128079    0.632535
  H    1.603277   -3.987654   -1.832035
  H    4.062225    1.779212   -1.631133
  H    2.825545    1.861245   -2.897551
  H    3.475211    3.343503   -2.189945
  C    3.170886    2.318885    -1.96708
