 55                                    
                                       
  C   -3.881526   -0.054617    1.682822
  C   -3.345435    1.011641    0.973018
  C    -2.01154    0.928326     0.56558
  C   -1.177093   -0.179655    0.809441
  C   -1.761617   -1.241384    1.505231
  C   -3.085335   -1.174563    1.944206
  H   -1.308624    3.994954   -2.441639
  H   -3.940355    1.887511      0.7302
  C   -1.333679    1.949517   -0.213106
 Co    0.605157     0.03501    0.031229
  C    2.418272   -1.127028   -0.082968
  C    2.721145    0.263329   -0.149071
  C    2.286343    0.855323    1.079628
  C    1.671215   -0.150254    1.865537
  C    1.752838   -1.390691    1.139747
  C    2.701422   -2.125312   -1.161179
  C    3.396756    0.933474   -1.309172
  C    2.399065    2.298889    1.473372
  C    1.099396    0.037293    3.238285
  C    1.333439   -2.746844    1.621457
  H    2.212606    -3.38286    1.773282
  H    2.059702   -3.002184   -1.056162
  H    2.519431   -1.692383   -2.149719
  H    3.749232   -2.443977   -1.117791
  H    2.910248    0.664024   -2.252851
  H    3.369556    2.022785   -1.218955
  H    4.448786    0.635937   -1.380698
  H    2.791691    2.906117    0.653926
  H    1.428406    2.713491    1.763834
  C   -0.389758   -1.707455   -1.903649
  O   -0.478312   -2.575565   -1.029358
  H   -2.503098   -2.463142   -1.001724
  O   -3.336546   -2.027265   -1.250304
  H   -3.381229   -1.271929   -0.647457
  O    0.060157    -0.50994   -1.708917
  C    0.302901    2.831496   -1.440178
  C   -0.932074    3.759256   -1.446724
  H     3.08061    2.412755    2.323029
  H   -4.913663   -0.027933    2.016117
  N   -0.076091    1.820778   -0.460639
  H   -3.515145    -2.01921    2.475469
  C   -0.867204   -1.989405   -3.313224
  H    -0.63611   -3.022637   -3.578563
  H   -1.955832   -1.872854   -3.307334
  H   -0.428654    -1.29753   -4.033189
  H   -1.198015   -2.152825    1.678589
  H    0.768298    1.068743    3.389096
  H    0.234959   -0.611119    3.402036
  H     1.84963   -0.191329    4.003888
  H    0.478098    2.345198   -2.406194
  H    0.809456   -2.679705    2.578387
  H    0.675578   -3.227108    0.891297
  O   -1.950592    2.999126   -0.755946
  H    1.214005    3.355758   -1.139767
  H   -0.769018    4.681851   -0.883947
