 58                                    
                                       
  C   -3.238095    2.119459    0.240364
  C   -2.103113    2.791711   -0.198598
  C   -0.882301     2.12981    -0.30318
  C   -0.726891    0.781997    0.053417
  C   -1.881249    0.128928    0.477041
  C   -3.120756    0.768948    0.561472
  C    1.964064   -1.882317     0.74075
  H   -2.183357    3.839946   -0.481272
  N    0.198246    2.897377   -0.837237
 Co    0.967074   -0.142161   -0.093215
  C   -0.138506   -2.200017    2.250658
  C    1.973688   -3.228657    0.083752
  C    4.076346   -0.887204   -0.420906
  C    3.240752    1.589687    1.356096
  H   -0.882952   -1.552078    2.721124
  H   -0.641362   -2.805758    1.494536
  H    0.263458   -2.860163    3.028022
  H    1.027532   -3.745835    0.244846
  H    2.115103     -3.1324   -0.997221
  H    2.790944    -3.83937     0.48315
  H    4.077209   -1.810745   -1.004587
  H    4.046001   -0.048631   -1.125261
  H     5.02234   -0.835178    0.129272
  H    3.819336    1.738923    0.439868
  H    2.547559    2.431139    1.462542
  H    3.936621    1.624625     2.20153
  H    0.840949    1.863202    2.847017
  H    -0.47584    0.689793    2.897793
  H    0.887865     0.54066    4.022994
  C   -0.484362   -1.915564   -1.731953
  O    -0.93538   -2.506618   -0.741893
  H   -2.832334   -2.458139   -0.988648
  O   -3.713743   -2.095473   -1.192046
  H   -3.929804   -1.559033   -0.415616
  O     0.42443    -1.00327   -1.697095
  C    0.966882   -1.394569    1.638169
  H   -4.183209    2.644674    0.303403
  H   -1.848877   -0.929333    0.715004
  C   -1.030296   -2.241445   -3.107163
  O    1.721791    1.249761    -1.23332
  H   -2.072855   -1.906556   -3.129306
  H   -0.460236   -1.751415   -3.895985
  C    1.337893   -0.058869    2.016421
  C    2.516401    0.277744    1.313786
  H    0.003558    3.877096   -0.994077
  C    1.352546    2.435693   -1.321845
  H   -1.031374    -3.32466   -3.250229
  C    2.264058    3.418265   -2.008037
  H    1.839269    4.420937   -2.081829
  H    3.207777     3.46457   -1.458463
  H    2.480378    3.041083   -3.010053
  C    2.903524   -0.849027    0.511932
  C    0.606554    0.805581    2.997512
  O   -4.163621   -0.017398    0.962272
  C    -5.45468    0.554409    0.947931
  H   -6.141106    -0.23984    1.239956
  H   -5.528327    1.381559    1.664078
  H    -5.71556    0.914238   -0.054151
