 63                                    
                                       
  C   -2.841269    3.741178   -0.048908
  C   -1.456051    3.697927    0.022742
  C    -0.80184    2.463917    0.080601
  C   -1.485707     1.24423    0.086819
  C   -2.880833    1.330424   -0.002775
  C   -3.558331    2.547904   -0.073369
  C   -0.872559   -2.395684    1.087108
  H   -0.879666    4.621747    0.020238
  N    0.626935     2.51927    0.146586
 Co   -0.532055   -0.432092    0.229474
  C   -3.151955   -1.441646    1.920277
  C   -1.388338    -3.57085    0.314491
  C    1.670988   -2.757027    0.637444
  C    1.820277   -0.143553    2.404793
  H    -3.53674   -0.457515    2.200487
  H   -3.645424   -1.745793    0.994809
  H   -3.421227   -2.144132    2.717472
  H   -2.464038    -3.49294     0.15526
  H   -0.912697   -3.628559   -0.669744
  H   -1.170488   -4.500028     0.85252
  H    1.351364   -3.463991   -0.132324
  H    2.370022   -2.052214     0.17368
  H    2.218556   -3.317692    1.403448
  H    2.599951   -0.300078    1.651893
  H    1.661799     0.93464     2.51329
  H    2.200774   -0.519187    3.361065
  H   -0.404684    1.496719    3.165203
  H   -2.101593     1.14964    2.840375
  H    -1.29779     0.40511    4.237171
  C   -2.088165   -1.319751   -1.958275
  O   -3.076058   -1.480987   -1.228096
  H   -4.446814   -0.373229   -2.009253
  O   -4.790516    0.437897   -2.426943
  H   -4.095325    1.083721   -2.239102
  O   -0.917236   -0.975569   -1.553823
  C   -1.664853   -1.405918    1.740379
  H   -3.456637    0.411136    -0.03438
  C   -2.231056   -1.531191   -3.453702
  H   -2.540381   -2.563593   -3.639093
  O    1.084181    0.377339   -0.514067
  H   -1.303646   -1.317913   -3.984256
  C   -0.764801   -0.462358    2.350486
  C    0.554698   -0.852302    2.024715
  H    1.016682    3.445145    0.263412
  C    1.458838    1.539245   -0.273916
  H   -3.035644   -0.880269   -3.809294
  C    0.492322   -2.041613    1.225082
  C   -1.164995    0.710498    3.193202
  H   -4.641499    2.554321   -0.154554
  H    -3.35046    4.698373   -0.098288
  N    2.771353    1.886728   -0.421343
  C    3.843515    0.986952    -0.64855
  C    3.708796   -0.142188   -1.460354
  C    5.075164     1.28618   -0.062331
  C    4.810224   -0.971489   -1.653643
  H    2.758066   -0.364691   -1.927285
  C    6.170819    0.459543   -0.281463
  H    5.170867     2.16412    0.571912
  C    6.040929   -0.678516   -1.072548
  H    4.700352   -1.851548   -2.279387
  H    7.123782    0.703314    0.177025
  H    6.892946   -1.329466   -1.237738
  H    3.039164    2.826433   -0.163446
