 54                                    
                                       
  C   -3.795812    0.334389    1.628494
  C   -3.219526    1.303749    0.820394
  C   -1.894284    1.137714    0.402048
  C   -1.115451    0.026472    0.767235
  C   -1.732172   -0.944432    1.561417
  C   -3.048405   -0.790034    1.993984
  C    2.438464    -1.08159   -0.125895
  H   -3.807714    2.173671     0.53387
  C   -1.159079    2.072961   -0.469773
 Co    0.638187    0.091018   -0.042464
  C    2.658478   -2.169933   -1.130389
  C       3.366    0.939117   -1.501279
  C    2.470091     2.45877    1.102366
  H     0.87625   -2.406211    2.690509
  H    0.704545   -3.091504    1.060246
  H    2.260043   -3.182866    1.921355
  H    1.995544   -3.014356   -0.930881
  H    2.450386   -1.815104   -2.143942
  H    3.696538   -2.518577   -1.095355
  H    3.344192    0.265195   -2.360953
  H    2.828715    1.851001    -1.78138
  H     4.41085    1.208875     -1.3106
  H     2.21047    3.007287    0.192498
  H    1.816542    2.811058    1.904161
  H    3.501037    2.714255     1.37113
  H    0.903494     1.35769    3.253163
  H    0.333837   -0.305443     3.35459
  H    1.968281    0.102918    3.905611
  C    1.750784    0.042511    1.772921
  C   -0.518808   -1.816114   -1.720839
  O   -0.539882    -2.61074   -0.772747
  H   -2.473313   -2.877327   -0.620465
  O    -3.40106   -2.596538   -0.721218
  H   -3.393402   -1.702923   -0.351353
  O   -0.028466   -0.623848   -1.671729
  H   -4.821672    0.442558    1.964768
  H   -1.194118   -1.852529    1.818333
  H   -3.509831   -1.563913    2.600733
  C   -1.127897   -2.213988   -3.050379
  O    0.054784    1.844101   -0.706508
  H   -2.206554   -2.317877   -2.894743
  H   -0.926936   -1.474991     -3.8257
  C    1.795995   -1.246385    1.132469
  C     2.33654    0.981661    0.890987
  C   -1.004554    4.031347   -1.900093
  H   -0.599863    3.464618   -2.742033
  H   -1.683983    4.800123   -2.266816
  H   -0.174662    4.504141   -1.368702
  C    1.209362    0.314071    3.144005
  C    2.742947    0.294514   -0.299736
  C    1.380979   -2.556596    1.732398
  H   -0.740262   -3.192122   -3.345182
  N   -1.737414    3.148943   -1.007939
  H    -2.72249    3.299227   -0.855155
