 69                                    
                                       
  C   -1.221918    3.145956   -2.204555
  C   -1.764872     1.91787   -1.850358
  C    -0.97735    1.007885   -1.133769
  C    0.369497    1.253672   -0.833593
  C    0.872077     2.51923   -1.150389
  C    0.089158    3.454244   -1.823989
  C    2.986962    -0.88622    0.918247
  H   -2.782724    1.666622   -2.139443
  C   -1.399509   -0.358378   -0.724435
 Co    1.173419   -0.327498   -0.078756
  C    3.180028   -0.744556     2.39622
  C    1.966252   -3.294064    0.848566
  C     1.87845   -2.610741   -2.216566
  H    4.028012    2.050549   -0.628113
  H    3.231033    2.041751    0.962704
  H    4.843033    1.321328    0.753583
  H    3.142391    0.308256    2.687334
  H    2.398514   -1.274122    2.948097
  H    4.150397   -1.155547    2.696358
  H     1.77429   -3.174135    1.917643
  H    1.034107   -3.625151    0.379932
  H     2.70715   -4.092205    0.725711
  H    0.897265   -3.005009   -1.936605
  H    1.772339    -2.09549    -3.17373
  H     2.55825   -3.457495   -2.361485
  H    2.271401    0.055938   -3.350643
  H    2.988813    1.423547   -2.511178
  H    4.023708    0.108332   -3.090597
  C    2.890955   -0.375592   -1.333563
  C    0.441866    0.924452    2.319113
  O    1.155301    1.886868    2.018396
  H   -0.533424    2.908382    1.551064
  O   -1.473792     3.00112    1.313682
  H   -1.441516    3.205346    0.367293
  O    0.255839   -0.122154    1.585671
  H   -1.812553    3.862474    -2.76635
  H    1.884196    2.789116   -0.862616
  H    0.502749     4.42876   -2.069067
  C   -0.323322    0.941173    3.630485
  O    -0.47008   -1.219811   -0.714488
  H   -1.165182    1.633039    3.519395
  H   -0.702178   -0.048152    3.890792
  C    3.238992    0.139412   -0.033725
  C    2.409268   -1.695044   -1.156297
  C    3.052132    0.340933   -2.640523
  C    2.441528   -2.009341    0.240279
  C    3.865272    1.466192    0.281251
  H    0.324988    1.323652    4.421659
  N    -2.66269   -0.682871   -0.399025
  C   -3.532651    0.356459    0.217653
  C    -3.41928    0.372166    1.746551
  C    -4.97512    0.303526   -0.270198
  H   -3.106042    1.306005   -0.091183
  H    -2.37596    0.218736    2.033817
  H   -3.715896    1.362668    2.102765
  H   -4.048297   -0.376429    2.232887
  H    -5.03153    0.312108   -1.363216
  H   -5.503531    -0.58039    0.098915
  H   -5.504175    1.182173    0.110452
  C   -2.992323   -2.127577   -0.352817
  C   -3.927643   -2.509629   -1.504183
  C   -3.509737   -2.626683    0.993163
  H   -2.038097   -2.623624   -0.527163
  H   -3.549271   -2.119423   -2.453262
  H   -3.979249   -3.600448   -1.579293
  H   -4.944246   -2.137764   -1.356558
  H   -2.828333   -2.355303    1.802969
  H   -4.508787   -2.247527    1.225103
  H   -3.575557   -3.718281    0.950125
