 58                                    
                                       
  C    2.733173   -2.075646   -2.075937
  C    2.774105   -0.735258   -1.713525
  C    1.647296    -0.16893   -1.100307
  C    0.473372   -0.900875   -0.849404
  C    0.489393    -2.26031   -1.172993
  C    1.596116   -2.839213   -1.790154
  C   -2.809676    0.016788    0.876811
  H    3.657485   -0.140116   -1.910687
  C    1.486341    1.240748   -0.674889
 Co   -0.893622    0.213601   -0.063454
  C   -2.971208   -0.240748    2.342642
  C   -2.768918    2.630981    0.901712
  C   -2.342556    2.140812   -2.173721
  H   -2.630169   -3.039502   -0.776041
  H   -1.941822   -2.790434    0.846431
  H   -3.699542    -2.71733    0.586974
  H   -2.535149   -1.206447    2.610059
  H   -2.471027    0.529521     2.93581
  H   -4.032581   -0.248447    2.614854
  H    -2.54779    2.558219    1.969435
  H   -2.038869    3.314834     0.45748
  H   -3.761526    3.082359    0.792332
  H   -1.585948    2.861224   -1.849231
  H   -2.028747    1.737017   -3.138769
  H   -3.284505     2.67974   -2.323021
  H   -1.714183   -0.428079    -3.39596
  H   -1.833253   -1.993777   -2.605027
  H    -3.30203   -1.181526   -3.170446
  C   -2.470983   -0.341264     -1.3812
  C    0.228782   -0.789393    2.309814
  O   -0.107136   -1.933954    1.986463
  H    1.783063   -2.377609    1.567788
  O    2.713209    -2.17124      1.3617
  H    2.765812   -2.292945    0.402271
  O    0.000396    0.275045    1.617957
  H    3.587669   -2.530186   -2.567094
  H   -0.365483   -2.884912   -0.930293
  H    1.580781   -3.895267   -2.046257
  C    1.016947   -0.558842    3.585882
  O    0.309144    1.685999   -0.556901
  H    2.069868   -0.762242    3.363391
  H    0.916572    0.469077    3.936408
  C   -2.631785   -0.994683   -0.107644
  C   -2.520038    1.055491   -1.156056
  C    2.379387    3.412819    0.084552
  H    2.775633    3.498713    1.100296
  H    2.939807    4.070892   -0.583427
  H    1.322677     3.67055    0.081037
  C   -2.321414   -1.022172   -2.708239
  C   -2.707292    1.284552    0.246314
  C   -2.724973   -2.469822    0.152186
  H    0.690068   -1.263074     4.35273
  N    2.507832    2.046463   -0.375656
  O     3.79756    1.567665   -0.399239
  C    4.101493    0.887103    0.831617
  H    3.993804    1.572944    1.678358
  H    3.466091    0.005023    0.967685
  H    5.145523    0.588374    0.731164
