 55                                    
                                       
  C   -3.236902    2.365657     0.59468
  C   -2.101039    2.972699    0.078887
  C   -0.940175    2.227898   -0.129893
  C    -0.85351    0.866285    0.190338
  C   -2.015311    0.280845    0.694017
  C   -3.190627    1.004929    0.882951
  C      1.6717    -2.01798    0.571981
  H   -2.129487    4.029738   -0.179159
  N    0.147652    2.932504   -0.731714
 Co    0.748845   -0.176132   -0.114408
  C   -0.330211   -2.256813    2.225979
  C    1.531042   -3.329969   -0.137329
  C     3.76245   -1.123644   -0.704502
  C    3.241641    1.324248    1.225548
  H   -0.980813   -1.583186    2.790125
  H   -0.938592   -2.781566    1.487006
  H    0.081408   -2.986622    2.932776
  H    0.558094   -3.778098    0.066195
  H     1.61073   -3.196392   -1.220603
  H    2.319482   -4.020478    0.181903
  H    3.655132   -2.019189   -1.321006
  H     3.74167   -0.255316   -1.372174
  H    4.746807    -1.16045   -0.224971
  H    3.761157    1.473111    0.274533
  H    2.621547    2.206666    1.416901
  H    3.998028    1.272797    2.016409
  H     0.98087    1.698624    2.903022
  H   -0.406852    0.614603    3.015527
  H    1.026199    0.326412    4.020719
  C   -0.957114   -1.764261   -1.698405
  O   -1.383106   -2.356344   -0.698075
  H   -3.280436   -2.105014   -0.797231
  O   -4.134011   -1.657627   -0.941173
  H    -4.29808   -1.186503    -0.11147
  O    0.022646    -0.92769   -1.700553
  C    0.781292   -1.502101    1.561789
  H   -4.147072    2.939382    0.748303
  H   -2.038108   -0.782482    0.907781
  C   -1.624671   -1.990088   -3.039548
  O     1.52604    1.197175   -1.261318
  H   -2.626338   -1.550907   -2.980452
  H    -1.06217   -1.534004   -3.853816
  C    1.276455   -0.214813    1.963738
  C    2.421766    0.069666    1.186981
  H    0.010206    3.926374   -0.856512
  C    1.232366    2.406527   -1.303016
  H   -1.746539   -3.062405   -3.209228
  C     2.15956    3.341696   -2.033047
  H    1.801327    4.372411   -2.056285
  H    3.140339    3.310218   -1.551561
  H    2.278602    2.975827   -3.055332
  C    2.666076    -1.04504    0.314717
  C     0.68541    0.653569    3.031908
  O   -4.276088    0.316625    1.355211
  H   -5.054492    0.891534     1.34023
