 58                                    
                                       
  C    3.770268    1.152645   -0.403226
  C    2.651801    1.974254   -0.495662
  C    1.370359    1.456293    -0.31498
  C    1.170359    0.075952   -0.056437
  C    2.297971   -0.722834    0.073004
  C    3.597044   -0.201125   -0.099569
  O   -1.035424   -0.431006    1.935673
  H    2.801666    3.030268   -0.702431
  C    0.154708    2.274068   -0.277214
 Co   -0.726667   -0.398563   -0.014419
  C   -0.778657   -1.124574   -1.969644
  C   -0.518721   -2.234142   -1.084195
  C   -1.608915   -2.333494    -0.19489
  C   -2.577119   -1.325729   -0.540104
  C   -2.084229   -0.631533   -1.674634
  C    0.101451    -0.67435   -3.096194
  C    0.631322   -3.185284   -1.194694
  C   -1.769852   -3.307331     0.93068
  C   -3.886721   -1.140795    0.167853
  C   -2.761849    0.468923   -2.432481
  H    1.502293   -2.716151   -1.655876
  H    0.931173   -3.589788   -0.224195
  H    0.334487   -4.030739   -1.824976
  H   -0.814588   -3.749787    1.222671
  H   -2.207795   -2.823995    1.808527
  H   -2.437554   -4.121575    0.629146
  H   -3.739037   -0.969125    1.239969
  H   -4.452187   -0.298837   -0.239048
  H   -4.511478   -2.033355    0.060514
  H    1.258851    0.089963    1.980361
  C   -0.355127   -0.188398    2.938895
  O    0.915626    0.113044    2.905823
  H   -0.065713    0.380386   -3.331869
  H    1.158146   -0.792257   -2.842028
  H   -0.101009   -1.256483    -4.00155
  H   -2.981852    1.532019    0.403755
  H     -3.2408    4.013235    0.222976
  H   -1.210864    5.377001   -0.352431
  H    0.972005    4.235516   -0.636325
  H   -3.636705    0.854585    -1.90496
  C   -2.138142     2.17472    0.168068
  N   -0.963725    1.557323   -0.017416
  H   -2.085444    1.306769   -2.626918
  H   -3.100716    0.086252   -3.400921
  C   -1.141879    4.298878   -0.249644
  C    0.078797    3.663498    -0.41482
  H    4.757749    1.573091    -0.54742
  H    2.233031   -1.781877    0.307384
  C   -0.936246   -0.223508     4.31537
  H   -0.399123   -0.966074    4.911193
  H   -0.787297    0.748275    4.792938
  H   -1.995769   -0.467202    4.270261
  C   -2.275415    3.547983     0.06547
  O    4.598242   -1.085107    0.046161
  C    5.930558   -0.623034   -0.111704
  H    6.166454    0.150535    0.626874
  H    6.567908   -1.490372    0.050861
  H      6.0921   -0.232289   -1.122006
