 53                                    
                                       
  C    3.931009   -1.430714   -1.086361
  C     3.63398   -0.171477   -0.572145
  C    2.301762    0.140103   -0.313334
  C    1.225566   -0.742374   -0.548564
  C    1.566109   -1.998737   -1.058739
  C    2.901005   -2.338145   -1.321997
  O   -0.495432   -0.532417    1.838256
  H    4.416491    0.553896   -0.369678
  C    1.858425    1.405551    0.254991
 Co   -0.511715    0.040978   -0.053258
  C   -1.314472   -0.336996   -1.976152
  C   -1.929836   -1.180684   -0.990897
  C   -2.623825   -0.330913   -0.071639
  C   -2.373727    1.013912   -0.417698
  C   -1.544644    1.010979   -1.596842
  C   -0.589791   -0.768955   -3.213435
  C   -1.994152    -2.68135   -0.985644
  C   -3.418361   -0.797824    1.107192
  C    -2.91861    2.212493    0.302615
  C   -1.040721    2.214669   -2.332866
  H   -1.407117   -3.109288   -1.800814
  H   -1.625359   -3.107957   -0.046138
  H   -3.026952   -3.019584   -1.116213
  H   -3.080766   -1.778083    1.454106
  H   -3.349234   -0.094799    1.941257
  H     -4.4741   -0.889296    0.829397
  H   -2.682928    2.190313    1.371952
  H   -2.525679    3.142164   -0.114688
  H   -4.008474    2.249318      0.2072
  H    1.148493   -2.051693    1.113243
  C     0.01511   -1.437286    2.505785
  O    0.904639   -2.276389    2.041348
  H    0.313387   -0.177315   -3.382678
  H   -0.293573   -1.817948   -3.168471
  H   -1.246947   -0.641146   -4.080286
  H    0.037093    2.720671    2.127662
  H    1.993727    4.289424    0.417235
  H   -0.927716    3.074962   -1.668303
  C    0.427258    2.888058    1.118436
  H   -0.069096    2.018785   -2.794138
  H   -1.738886    2.496809   -3.127876
  N    0.595878    1.606469     0.43191
  H     4.95879   -1.705096    -1.29731
  H    0.794644    -2.74034   -1.258368
  H    3.133423   -3.322228   -1.717985
  C   -0.339933   -1.659767    3.940288
  H   -0.618559   -2.705993    4.086953
  H    0.541524   -1.467361    4.558459
  H   -1.154657   -0.999726    4.231353
  C    1.864518    3.461565    1.116186
  O    2.685928    2.362195    0.642807
  H   -0.274482    3.532169    0.583246
  H    2.230989    3.747891    2.101108
