 57                                    
                                       
  C    3.109711    1.903131   -0.461223
  C    1.862253    2.517881   -0.529405
  C    0.708279    1.763907    -0.30782
  C    0.768919    0.379147   -0.032105
  C    2.030153   -0.199087     0.08018
  C     3.18666    0.553144   -0.140375
  O   -1.162116   -0.676907    1.958758
  H     1.80688    3.579626   -0.749515
  C    -0.65113    2.334614   -0.252074
 Co   -0.974032   -0.467596    0.008424
  C   -0.382019    -1.62188   -1.688573
  C   -0.679503   -2.458677   -0.571505
  C   -2.078448   -2.300809   -0.266601
  C   -2.611153   -1.316079   -1.117576
  C    -1.54092   -0.843801   -1.964746
  C    0.892755   -1.567789   -2.471817
  C    0.225308   -3.455537    0.090904
  C   -2.791597   -3.052558    0.812533
  C   -4.044534   -0.888592   -1.211609
  C    -1.65753     0.20922   -3.025613
  H    1.257549   -3.351639   -0.250611
  H    0.215018   -3.346935    1.180451
  H   -0.094697   -4.476728   -0.140677
  H   -2.185472   -3.104849    1.720968
  H   -3.747277   -2.589729    1.067486
  H   -2.990502   -4.077808    0.482569
  H   -4.564772   -0.970959   -0.253103
  H   -4.141451    0.139123   -1.571081
  H    -4.57169   -1.531261    -1.92474
  H    0.755537    0.668477     1.99372
  C   -0.620942    -0.19669    2.960694
  O    0.429849    0.581034    2.918904
  H    1.151989   -0.545033     -2.7579
  H    1.740101   -1.983664   -1.923756
  H    0.765482   -2.153125   -3.389092
  H   -3.566586    1.036447    0.548368
  H   -4.293007    3.413036    0.309259
  H   -2.577187    5.120539   -0.358624
  H   -0.221033     4.40098   -0.674394
  H   -2.406469    0.961769    -2.76126
  C   -2.863933    1.813321     0.26499
  N   -1.601617    1.420471    0.057205
  H   -0.704742    0.725252   -3.175674
  H   -1.952633   -0.233533   -3.982647
  C   -2.302684    4.078256   -0.233256
  C   -0.985693    3.677914   -0.416192
  H    4.015901    2.470916   -0.639404
  H    2.135969   -1.255073    0.324093
  C   -1.120938   -0.471562    4.341219
  H   -0.340796   -0.990705    4.904715
  H   -1.315155    0.475595    4.850549
  H   -2.024099   -1.077037    4.299846
  C   -3.260958    3.135508    0.131695
  C    4.510446   -0.158291   -0.046894
  F    4.694285   -0.665221    1.178761
  F     5.53678    0.647109   -0.322312
  F     4.54743   -1.188893   -0.906196
