 56                                    
                                       
  C    3.512899    1.875511   -0.539987
  C    2.273425    2.506997   -0.573603
  C    1.116651     1.75667    -0.34768
  C    1.165884    0.362316   -0.110126
  C     2.42262   -0.231582   -0.042377
  C    3.589289    0.512922   -0.258253
  O   -0.691249   -0.668069    1.961546
  H    2.222431    3.574925   -0.762727
  C   -0.231342    2.344343   -0.235963
 Co   -0.587659    -0.45792    0.001848
  C   -0.070188   -1.692362   -1.665871
  C   -0.421667   -2.477406   -0.531887
  C   -1.811233    -2.22258   -0.234012
  C   -2.276529   -1.230975   -1.113715
  C    -1.17337   -0.839268   -1.959172
  C    1.200327   -1.753896   -2.453645
  C    0.418113   -3.507539    0.162905
  C   -2.572091   -2.906948    0.857693
  C   -3.677019   -0.712427   -1.234224
  C   -1.222412    0.192132   -3.046118
  H    1.476822   -3.403511   -0.085387
  H    0.316866   -3.433603    1.250172
  H    0.108243   -4.516511   -0.129001
  H   -2.007477   -2.898163    1.794324
  H     -3.5387   -2.432434    1.038949
  H   -2.755273   -3.952066    0.586877
  H   -4.232703   -0.795618   -0.296325
  H   -3.701025    0.330788   -1.560294
  H   -4.216686   -1.298002   -1.986285
  H    1.311357    0.546832    1.929109
  C   -0.072236   -0.247817     2.94476
  O    1.025928    0.458665    2.867507
  H    1.541686   -0.762121   -2.760179
  H    2.009614   -2.234282   -1.900835
  H    1.018828   -2.343662   -3.359033
  H   -3.131787    1.072985    0.655055
  H   -3.830441    3.464382    0.494772
  H    -2.11747    5.159855   -0.210764
  H     0.21251    4.412616   -0.635124
  H   -1.906622    1.007271   -2.791492
  C   -2.429271    1.845139    0.358661
  N   -1.183323    1.437796    0.090554
  H   -0.234639    0.628383   -3.220117
  H    -1.56495   -0.248553   -3.988288
  C   -1.854235    4.111364   -0.116919
  C   -0.551954    3.695438    -0.36064
  H    4.421832    2.445114    -0.71563
  H    2.542831   -1.291891     0.17274
  C   -0.523637   -0.519944    4.342704
  H     0.24047   -1.112891    4.852928
  H   -0.617858    0.425102    4.883143
  H   -1.472097   -1.053252    4.334168
  C   -2.810974    3.175673    0.268916
  C    4.908296   -0.180188   -0.204454
  O    5.015591   -1.363854    0.003081
  H    5.796049    0.460215   -0.373566
