 57                                    
                                       
  C    3.391823   -2.384299    0.131196
  C    3.338506   -1.026022   -0.200046
  C    2.085309    -0.38163   -0.119405
  C    0.907484   -1.105996    0.205598
  C    1.026336   -2.446292    0.567931
  C    2.267446   -3.084656    0.543988
  O   -1.148195    0.321921    1.868962
  C    4.627708   -0.363701   -0.621251
  C    1.845731    1.076177   -0.250166
 Co   -0.728589   -0.082077   -0.021664
  C   -1.108586   -0.623886   -1.994241
  C   -1.721713   -1.613817   -1.147578
  C   -2.647116   -0.950203   -0.316541
  C    -2.69079    0.442258   -0.703586
  C   -1.791275    0.615941   -1.777317
  C   -0.066659   -0.887155   -3.039218
  C   -1.482776   -3.087572   -1.235474
  C   -3.490032   -1.547857    0.767646
  C    -3.58737    1.462154   -0.068262
  C   -1.531715    1.866896   -2.558882
  H   -0.444157   -3.320622   -1.478522
  H   -1.746554   -3.606177   -0.310699
  H   -2.113902   -3.496533   -2.032373
  H   -3.099321   -2.513107    1.098168
  H   -3.538154    -0.88424    1.635758
  H   -4.513156   -1.704882    0.409872
  H   -3.452695    1.483483    1.018455
  H   -3.397764    2.466377   -0.455607
  H    -4.63821     1.22792   -0.267045
  H    0.959667   -0.660109    2.174474
  C   -0.518514    0.251497    2.930539
  O    0.671968   -0.276951    3.038054
  H    0.545491    0.001302   -3.220898
  H    0.604615   -1.693061   -2.730187
  H   -0.529399    -1.17375    -3.98967
  H   -0.918446    2.842284    0.135597
  H    0.676963     4.76029   -0.097249
  H    3.101693    4.223024   -0.488893
  H    3.828047     1.88344   -0.544973
  H   -1.963306    2.750192   -2.083102
  C    0.144196    2.681174   -0.025401
  N    0.537531    1.404995   -0.090339
  H   -0.461917    2.043947   -2.704999
  H   -1.986443    1.771678   -3.550646
  C    2.369536    3.430963   -0.369272
  C    2.781866     2.10445   -0.409213
  H    0.147601   -3.011667    0.869414
  H    2.353155   -4.128427    0.830279
  C   -1.074865    0.767971    4.217677
  H   -1.184451   -0.065433     4.91695
  H      -0.368     1.47421    4.659986
  H   -2.037603    1.245494    4.046764
  C    1.029769    3.737899   -0.156709
  H    4.349791   -2.893177    0.079489
  H    4.518222    0.189737   -1.558552
  H    5.003035    0.324427    0.144185
  H    5.398398   -1.121016   -0.776865
