 56                                    
                                       
  C    2.809185   -2.256203   -1.681582
  C    2.616826   -0.881698   -1.780099
  C    1.490185   -0.327807    -1.17319
  C    0.525955   -1.079732   -0.473716
  C    0.773873   -2.449271   -0.358683
  C    1.899612   -3.029707   -0.959882
  H   -1.674707   -2.484984     2.24185
  H    3.326653   -0.247692   -2.303777
  C    1.226777    1.100797   -1.084115
 Co   -0.930466    0.013246    0.238068
  C    -2.84797   -0.010057    1.178927
  C   -2.856897    0.929378    0.128808
  C   -2.532127    0.224173   -1.087034
  C   -2.389114    -1.15547   -0.774783
  C   -2.509208   -1.298304    0.642619
  C   -3.092243    0.269312    2.630137
  C   -3.180163    2.389237    0.252939
  C   -2.427453     0.82227   -2.457291
  C   -2.165592   -2.244558   -1.777452
  C   -2.427793    -2.56059    1.450134
  H    -3.39069   -2.775824    1.924347
  H   -2.473295   -0.367029    3.271094
  H   -2.908475    1.318374    2.882378
  H   -4.136522    0.056038    2.882801
  H    -2.66473     2.85924    1.096829
  H   -2.912462    2.935657    -0.65384
  H   -4.255167    2.525878    0.408902
  H   -2.083047    1.859104   -2.416797
  H   -1.722737    0.263092   -3.078513
  O    0.000528    0.075364    1.982731
  H    0.948151    0.370777    1.859172
  H   -0.391603    0.643537    2.663968
  H   -3.114341   -2.479086   -2.271882
  H   -0.640638    3.355804   -1.111817
  H    1.554813    3.991145   -1.891849
  H   -2.173567   -3.418991    0.824869
  C    1.566904     3.29966   -1.050624
  H   -3.399795    0.812584   -2.960533
  C    0.167493    2.971126   -0.481392
  H    3.672962   -2.721426   -2.143658
  H    0.091496   -3.087163    0.198967
  H    2.067322   -4.098096   -0.860676
  O    3.365698   -1.164612    1.332857
  H   -1.794734   -3.158572   -1.311253
  H   -1.446583    -1.94892   -2.545455
  C    3.456222    0.135765    1.553366
  O    2.483217    0.879982    1.594811
  C    4.868437    0.598797    1.729599
  H    5.374559   -0.032193    2.463467
  H    5.397712    0.486763    0.778862
  H    4.880903    1.640492    2.043636
  H     2.44655   -1.413254    1.100609
  N    0.160287    1.507178   -0.479774
  H    2.263708    3.647977   -0.286302
  H    0.028784    3.363659    0.529584
  O    2.062134     2.02333   -1.530961
