 55                                    
                                       
  C   -2.801064    2.339074   -1.528439
  C   -2.593334     1.01779   -1.898691
  C   -1.539403    0.293502   -1.331648
  C   -0.644481    0.859859    -0.41751
  C   -0.913278    2.183159   -0.036246
  C   -1.968922    2.922191   -0.574319
  H    1.626156    2.310269    2.419723
  H   -3.261015    0.542366   -2.613964
  N   -1.456105   -1.081387   -1.696095
 Co    0.878119   -0.097978    0.284382
  C    2.842549   -0.026349    1.133455
  C    2.859518   -0.888203    0.024571
  C    2.403552   -0.137881   -1.119763
  C    2.217828    1.216891   -0.718748
  C    2.403466    1.277317    0.690661
  C    3.170526    -0.35753    2.557624
  C    3.196509   -2.347141   -0.000196
  C    2.253773   -0.685111   -2.507193
  C    1.875001    2.347647   -1.636675
  C    2.309416    2.481392    1.580761
  H    3.292286    2.725001    1.996939
  H    2.509908    0.174437    3.250162
  H    3.098355    -1.42969    2.758079
  H    4.194237   -0.046811    2.791959
  H    3.493276   -2.708349    0.986353
  H    2.341898   -2.943242   -0.336859
  H     4.02854   -2.530177   -0.687073
  H    2.008632   -1.751456    -2.48077
  H    1.463608   -0.166128   -3.057802
  O   -0.022024   -0.194229    2.044322
  H   -0.959756   -0.484017    1.871643
  H    0.356849    -0.85162    2.649963
  H     2.78528    2.688573   -2.141581
  H   -2.764993    1.147214    0.983313
  O   -3.643163    0.762316    1.187544
  O   -2.459281   -1.118182    1.482671
  C   -3.532419   -0.531834    1.437203
  H    1.959822    3.358873    1.032652
  H    3.183965   -0.574742   -3.074483
  C   -0.750233   -2.032462   -1.081393
  H   -3.619879    2.900233   -1.965006
  H   -0.270158    2.659061    0.701635
  H   -2.136774    3.945696   -0.254911
  H    1.448088    3.195971   -1.098934
  H      1.1556    2.043522   -2.401542
  C   -4.857908   -1.193972    1.660233
  H   -5.339505   -0.742711    2.532014
  H    -5.50876   -1.016014    0.800919
  H   -4.716491   -2.260589    1.822524
  O     0.09072    -1.79747   -0.185315
  C    -0.99459   -3.459486   -1.476895
  H   -0.038024   -3.935369    -1.70368
  H   -1.429748   -3.978367   -0.618116
  H   -1.663353   -3.558656   -2.332967
  H   -2.103571   -1.390741   -2.410349
