 64                                    
                                       
  C   -1.690391   -3.152094    1.934737
  C   -1.965008   -1.793087    1.998911
  C   -1.176835   -0.888631    1.279143
  C   -0.076336   -1.295823    0.519137
  C    0.142886   -2.678857    0.441199
  C   -0.644489   -3.603439    1.131156
  H    2.913317   -2.464079    -1.69449
  H   -2.806178   -1.435742    2.589017
  N    -1.59445    0.472145    1.308729
 Co    1.098967   -0.032111   -0.337483
  C    3.082315    0.379005   -1.043891
  C    2.662257    1.439114   -0.223898
  C    2.321423    0.886985    1.064929
  C     2.63838   -0.501165    1.052806
  C    3.028197   -0.841323   -0.274602
  C    3.481518    0.437908    -2.48692
  C    2.510449     2.88204   -0.592719
  C    1.804817     1.67618    2.230047
  C    2.550794   -1.420224    2.230464
  C    3.462222   -2.181926   -0.789513
  H    4.528124   -2.166708   -1.039448
  H    3.107619   -0.431691   -3.037416
  H    3.119682    1.345145   -2.977466
  H    4.572925    0.427299   -2.577349
  H    2.779939    3.062418   -1.635295
  H    1.479942      3.2187   -0.444476
  H    3.161236    3.502053    0.031888
  H    1.210696    2.529929    1.887489
  H    1.175563    1.061882     2.88091
  O      0.4579    -0.65982   -2.100706
  H   -0.535366   -0.693317   -2.041182
  H     0.66558   -0.064995   -2.839115
  H    3.451046   -1.307195    2.843993
  H   -1.891597   -2.565697   -0.769145
  O   -2.832531    -2.50122   -1.037439
  O   -2.193038   -0.513577   -1.853652
  C   -3.066676   -1.337318   -1.619671
  H    3.311774   -2.965816   -0.044292
  H    2.629262    2.068828    2.834466
  C    -1.23981    1.441519    0.458453
  H   -2.304194   -3.853942    2.488544
  H    0.963607   -3.048513   -0.170547
  H   -0.437554   -4.665605    1.048716
  H    2.475308   -2.465737    1.926352
  H    1.682635   -1.194463    2.855416
  C    -4.51325   -1.138342   -1.957294
  H   -4.838472   -1.935125   -2.631445
  H   -5.116052   -1.215627   -1.048791
  H   -4.652987   -0.167422   -2.429078
  O   -0.283364    1.322411    -0.34095
  C   -2.097875    2.702502     0.41848
  C   -1.245011    3.882039   -0.056822
  C   -3.215566    2.420137   -0.605765
  C   -2.710512    3.032648    1.787046
  H   -0.444997    4.107048    0.656986
  H   -0.796845    3.677076   -1.031123
  H   -1.875728    4.770832   -0.145184
  H   -3.848285    1.587344   -0.279563
  H   -3.844318     3.30996   -0.705745
  H     -2.7969    2.168841   -1.583985
  H   -3.211631    4.002231    1.725579
  H   -3.477726    2.313008    2.096551
  H   -1.947628    3.099442    2.569827
  H   -2.365486    0.682186    1.929863
