 64                                    
                                       
  C     3.96629   -1.322594    1.844984
  C     2.64414   -1.643711    2.124448
  C     1.61062   -0.988206    1.448414
  C    1.856916    0.010843    0.499917
  C    3.202264    0.275073    0.209207
  C    4.252031   -0.369193    0.869388
  H    2.555228    2.866579   -2.070829
  H    2.415721   -2.414774    2.856798
  N    0.281259   -1.380194    1.774082
 Co    0.421536    0.971722   -0.354994
  C   -0.224918    2.819593   -1.233303
  C   -1.193977    2.390856    -0.31044
  C   -0.543483    2.250453    0.970147
  C    0.806043    2.682218    0.837931
  C    1.034826    2.957045   -0.542871
  C   -0.398786    3.049594   -2.703622
  C   -2.631764    2.055075   -0.566929
  C   -1.228742    1.800984    2.225718
  C    1.801213    2.792143    1.950181
  C    2.300638    3.449258   -1.179088
  H    2.193218    4.495044   -1.485418
  H    0.462211    2.676489   -3.267996
  H   -1.303768    2.573476   -3.089457
  H   -0.476114    4.122141   -2.910993
  H   -2.896255    2.195386   -1.617075
  H   -2.852353    1.016028   -0.297801
  H   -3.282378    2.702538    0.029624
  H   -2.038288    1.098868    1.995092
  H   -0.531072    1.311438    2.911608
  O    0.972062    0.210538    -2.09035
  H    1.138881   -0.763836   -1.957939
  H    0.292827     0.27139   -2.780945
  H    1.695275    3.766057    2.439883
  H    3.149805   -1.912683   -0.645722
  O    3.159149    -2.86932   -0.858918
  O    1.166562   -2.414933   -1.780111
  C    2.044199   -3.211762   -1.483557
  H    3.143735    3.394138   -0.487076
  H   -1.672654     2.65275     2.75192
  C   -0.795643   -1.213921    0.972309
  H    4.766759   -1.831925     2.37033
  H    3.441132    1.019102   -0.548615
  H    5.281483   -0.127436    0.625434
  H    2.826704    2.701987    1.586586
  H    1.649277     2.01435    2.703132
  C    1.980041   -4.677292   -1.791616
  H    2.788754   -4.931092   -2.482444
  H    2.137586   -5.255277    -0.87827
  H     1.01825   -4.918735   -2.239545
  O   -0.763883   -0.529001   -0.077849
  H   -1.966208   -2.346449    2.209553
  H    0.177259   -1.966267    2.592394
  N   -1.945408   -1.822595    1.344462
  C   -3.197523   -1.554729     0.70624
  C   -4.251908   -1.060446    1.470403
  C   -3.349238   -1.785855   -0.659335
  C    -5.47304   -0.790292    0.858468
  H   -4.114495   -0.884195    2.533906
  C   -4.567468   -1.495157   -1.264525
  H   -2.516859   -2.183379   -1.230102
  C   -5.628974   -0.998963   -0.509296
  H   -6.298219   -0.410496    1.451516
  H   -4.692278   -1.670124   -2.328059
  H   -6.579265   -0.782437   -0.985664
