 59                                    
                                       
  C   -2.183131   -2.593718    1.619346
  C   -2.295122   -1.214102    1.492868
  C   -1.256117   -0.495294    0.884154
  C   -0.078547   -1.136849    0.439053
  C   -0.025465   -2.529426    0.524638
  C   -1.067527   -3.255061    1.108127
  H     2.89955   -2.166432   -1.985033
  H   -3.189639   -0.724455    1.850992
  C    -1.23086     0.94051    0.518439
 Co    1.248983    0.091881   -0.232626
  C    3.228611    0.512544   -0.899842
  C    2.859261     1.45315      0.0785
  C     2.52238    0.726339    1.277661
  C     2.77314   -0.655027    1.047082
  C    3.127654   -0.807959   -0.325521
  C    3.606089    0.779404   -2.325328
  C    2.739635    2.939549   -0.065814
  C    2.059121    1.348261    2.559286
  C    2.675099   -1.728723    2.085088
  C    3.462156   -2.078352   -1.049988
  H    4.528396   -2.113596   -1.296075
  H    3.225726   -0.002228   -2.991298
  H    3.240512    1.749298   -2.674013
  H    4.695934    0.784016   -2.432035
  H    2.964042    3.266878   -1.083042
  H    1.729045    3.276338    0.187284
  H    3.439671    3.442795    0.608412
  H    1.430244    2.221114    2.362935
  H    1.479366    0.640327    3.157487
  O    0.585004   -0.178336   -2.079057
  H   -0.408668   -0.108403   -2.100439
  H    0.917802    0.467727    -2.72221
  H    3.555766   -1.678364    2.734293
  H   -1.799928    -2.03377   -1.235988
  O   -2.728052   -1.933983   -1.532545
  O   -2.061961    0.143542   -2.046267
  C   -2.949162   -0.694771   -1.938777
  H    3.236861   -2.956969   -0.441536
  N   -2.277747    1.774268    0.564357
  H    2.912556    1.676953    3.161726
  H   -2.981734   -3.156499     2.09017
  H    0.842362   -3.063969    0.144665
  H   -1.004919   -4.337351    1.171858
  H    2.644827   -2.725711    1.642683
  H    1.786334   -1.611116    2.710056
  C   -4.392282   -0.412407   -2.213868
  H   -4.888666     -1.2954   -2.617234
  H   -4.864387   -0.151921   -1.261249
  H   -4.477723    0.433031   -2.894892
  C   -2.281112    3.025236   -0.184484
  H   -1.324782    3.523387   -0.041762
  H   -2.443618     2.81196   -1.245475
  H   -3.084724    3.651988    0.202034
  O    -0.14256    1.410709    0.073126
  O   -3.530899    1.218133    0.723012
  C   -4.120445    1.662308    1.949631
  H   -5.098911    1.182724    1.985647
  H   -3.509266    1.353641    2.802893
  H   -4.242847    2.749146    1.951903
